12
## STRUCTURE-ID: 645bd80d5f471100be5a4848 ; CHARGE = -1; SPIN = 1
C -1.8258229015817014 -0.19151063480498454 2.11842948432944
O -2.439785097347814 0.08324665800950806 3.0401367767698804
I 0.3707307983386952 1.8234164191153013 -2.9671640459444393
O 2.2530352167271497 -0.9142546002888151 -1.7325676716964966
H 2.251098519217053 -0.2564709904006918 -2.434511171745595
Rh -0.8187935748471051 -0.6333985078917158 0.6262705369695253
I -2.357470671009149 -2.497163170893246 -0.45439206115263514
I 0.4200530954057341 -1.5399401490399525 -1.4193178708439849
O -0.35148181602259126 2.041060818295635 -0.4166177403640516
C 0.04287411198384611 1.284787876405752 0.43629157528301926
O 1.7025606801763147 0.3239649834832414 1.9719826913492273
C 0.7530016389595728 0.47626129800996325 1.2314594970461126
