13
## STRUCTURE-ID: 645bb49cc9997c2737099dea ; CHARGE = 0; SPIN = 1
I 1.2974398504692466 3.721236913768098 -1.5887626069609202
C -1.1063307170554866 -1.227540751956938 1.512200576497541
H -1.0371863119554579 -0.7436254531484324 2.485383637859012
H -0.8924214616954571 -2.298748529195539 1.6009818142817536
H -2.0896777451706825 -1.05607334445809 1.0689179587479656
H 0.39409766913409555 -2.071868478900409 -2.781828240424748
Rh 0.28936029928407114 -0.4966062411941773 0.20584992469562716
I -0.8732937470997667 -1.5432096514903517 -1.9823483142989655
I 2.080523839082864 -0.21219914159957495 2.0130978223853178
O -0.871831234489133 2.0983070272982722 0.2904525077251915
C -0.04074924688140657 1.3610724470574493 -0.14792951997598092
O 1.7830366654048295 0.8128845913709755 -1.5707627313785502
C 1.067032140972302 1.656370612448729 -1.1052528291532404
