20
## STRUCTURE-ID: 645bbe4b1b27e2795f315fbe ; CHARGE = -1; SPIN = 1
C -4.660797024461554 -0.6170581487393777 -0.34117588215094985
O -5.666829585470847 -1.1883370286647628 -0.2974538791625211
I -1.3219065420248985 2.236418967463787 -0.9746561418441716
C 3.604261847153857 1.1506000951079944 1.7562819570458232
H 4.68525473670606 1.2653075587897746 1.7374040577389491
H 3.1215970943651983 2.127125706665516 1.702259648064805
H 3.2576757018703444 0.6834909797230396 2.6761531188316368
O -1.2065392033453624 -1.0132392865631166 0.6241208818339008
C 1.0030899428442823 -0.9270288517032816 -1.176850980356107
H 0.5314761992868179 -1.9003351193192937 -1.1893879958469522
H 2.050402029668348 -0.9693010142404206 -1.4533294962224124
H 0.4581411381021837 -0.23268624891219766 -1.8048418461043316
H -1.450248698695455 -1.3928123089030353 1.470823646979926
Rh -3.107802214523673 0.34621349625261266 -0.44069725186291425
I -3.783050863390358 1.3789102881915882 1.8939692459582362
I 0.9328696579990802 -0.20752693832008057 0.8075869241763008
O -2.515787886524765 -0.7954077004869421 -3.1283714798851086
C -2.7646120642896115 -0.33730584673194425 -2.0948080909345386
O 3.704338168518893 0.025108369534275667 -0.37611616080289983
C 3.128467566211436 0.36786303085584504 0.6090897245432985
