18
## STRUCTURE-ID: 645bb7d84b693366b13adfd0 ; CHARGE = -1; SPIN = 1
I -3.7528192553965174 2.26952773038993 2.400028917391413
C -2.021582206786734 -0.19050085988450582 -2.5493439614868647
H -1.65793627487095 -0.7016939830925901 -3.451055902777745
H -2.908784281257174 -0.7180761932349907 -2.16910732606337
H -2.317168489357429 0.8253523231480605 -2.824604323254095
O 1.800203080661483 -2.1769686139240196 2.759680126804469
C 1.1910103793663143 0.414264140950392 2.215487885000862
H 0.29394976271755496 0.38485488362149556 2.8220123483751927
H 1.270416036521105 1.3377957309043411 1.6506247924483988
H 2.0675944615085964 0.23550854889389206 2.8231047152353375
H 1.8569681343075428 -3.1295612251684064 2.6825496363859873
Rh -0.5529538627666194 -0.36575642759968924 -1.1239995208044535
I -1.8303903489907256 1.2013245811351967 0.4401194654442153
I 1.1167881401701174 -1.1892570324015568 0.8178925812155718
O 1.4384296068890603 1.8204717999647426 -0.4886607220094554
C 1.1526520337502992 0.7356786708507278 -0.9765174014816539
O 1.7196656671539134 -0.6953922569587566 -2.937834850382592
C 1.1339574163801718 -0.05757181759427023 -2.090376460041209
