23
## STRUCTURE-ID: 645be90f4740c06be651c31a ; CHARGE = -1; SPIN = 1
C -2.5465543464812197 0.333739897600425 0.9850704295889628
O -3.5343109491575584 0.4534934352330274 1.5923229817650875
H 1.011666926630654 -3.631218152551499 0.6677208354840372
I 0.6019895805880551 -2.0335086719990323 0.5459682884640944
O 0.9529007271106223 0.209254976536218 2.3010863396016368
C 2.6770068784280823 -1.6572961932488934 0.9420884643286884
H 2.8868148906822344 -1.8272395273737636 1.9898914941242374
H 2.841630173079187 -0.6163131847893709 0.6974215574964493
H 3.2681611973860347 -2.2991292289496905 0.3002727145066932
H 0.7799133012028964 0.1392013788311396 3.253717107750317
O 0.24027900991202716 2.9730273519111363 0.07421141706098433
C -1.6672428610558188 0.643033018855684 -3.4954485050222295
H -1.9456711993459461 0.3439254875165465 -4.497507910148282
H -0.6404047351577812 0.9911282422455268 -3.4747666134449555
H -2.331559425280588 1.4181220958333263 -3.1290639803984495
H 0.45862602879832237 3.0513128548284816 -0.8665204177408365
Rh -0.9769194219482905 0.24816839161054463 0.0350698812818799
I -1.915498604794323 -3.7080822155612743 -0.2971179744115626
I -1.817584320897076 -1.0507142495114368 -2.1794809710478327
O 0.9519561384941934 0.826899717582397 -0.43342433187479384
C 0.47818444555172257 1.640494063378867 0.45284781766055265
O -0.10911870460825017 2.1768338687161566 2.6947294139181657
C 0.3357352708628488 1.374866643305541 1.8409119610571452
