20
## STRUCTURE-ID: 645bc83497252079a07e8a84 ; CHARGE = -1; SPIN = 3
C -2.568267443535579 0.2987436279099391 -0.4098994755175979
O -3.6001255606379443 0.7372965517049878 -0.7612052856047559
I -0.2192027269536148 -2.3696989823505534 -1.145204289208081
C 0.11858752699235003 -3.788228820731376 1.6733570516521676
H -0.4322539343868454 -4.603243371881934 1.2045585729531136
H 1.1674085939507166 -3.918303070617268 1.4018567668227047
H -0.005320687365561815 -3.8078823435416163 2.755449251119657
O -0.990070919395995 0.8843343732654921 -2.9418847992649186
C 2.3099321752848594 2.682008427658279 0.21397882109713842
H 2.099298664501175 3.058244954207144 1.2078140639364212
H 1.6116560194882272 3.0923443224861487 -0.5077244230176625
H 3.3378629448865476 2.8546193410094802 -0.07555644873250031
H -0.9341839928854422 1.4479241967389658 -3.7415362407028736
Rh -0.7030717771019227 0.44842203777984185 -0.11921788081032259
I -1.1265633067767165 2.2439834829313727 1.9580702545080382
I 1.9790130965009036 0.5377571892833262 0.2509903505058207
O -0.248972489398666 2.7181580506760548 -1.9181634894164037
C -0.6011778102473798 1.5427347850516957 -1.8255917325214792
O -0.8383314034891701 -1.543664069244268 1.634614552470297
C -0.3562169694297593 -2.5155506823359026 1.1452943797312674
