12
## STRUCTURE-ID: 645be62e2019aa262e3adfca ; CHARGE = -1; SPIN = 1
C -1.9717346063278203 -0.7829113170712201 0.39649450673807
O -2.9188336327619786 -1.4117743970735421 0.48848093127779174
H 0.2605815703140338 -0.2724770140272865 3.801804653371833
I 1.0577311224598807 -0.909643261396692 2.5767909379480303
O 2.691577067455584 1.2921011662076465 -1.6442017020575799
Rh -0.4297029979412753 0.2319809741100926 0.12069992472954154
I -1.1985493463084664 2.3237286644859654 1.5783081766472553
I 1.4628603045083826 1.9338166617736747 -0.4138135115890748
O 1.3240229510323016 -1.8693975476584717 -1.0893843908182652
C 0.5250856279012337 -0.9598354610212745 -1.1120448313678755
O -0.6098513520491944 0.4739609587460884 -2.8504176036081237
C -0.19318670828266457 -0.049549427075005884 -1.8527170912715802
