15
## STRUCTURE-ID: 645be4d32c991334520dd8e0 ; CHARGE = -1; SPIN = 1
C -3.105921938008772 -0.4032258302819397 -0.1114591497812697
O -4.236273550228522 -0.4894876064132277 0.012769944948109221
I -0.06561976837298739 -2.5076230977303995 0.7818572423831222
C 1.9179040555976772 -0.05407305294838968 1.2836416978163203
H 1.2607170413100333 0.14873630717514996 2.126797310265335
H 2.4964626797302683 0.8376185025348163 1.038339450893075
H 2.6009740545102655 -0.8595322982198498 1.5646183793612565
O 0.9127362241110177 2.2420867371403443 -2.218433823831851
Rh -1.2315212880394417 -0.06453906761666418 -0.15444144933165377
I -1.578800114508297 0.9520423456854583 2.2545605745888726
I 0.08803726083010292 2.2588864502542596 -0.5539976127227468
O -0.8473291226632356 -0.5148270646360992 -3.0782629086848363
C -1.038276877877476 -0.40034916271085386 -1.9563165092064427
O 1.6175933173557224 -0.6440770970059209 -1.0519650809851202
C 1.2093180262536352 -0.5016360652266783 0.06229193428782281
