21
## STRUCTURE-ID: 645beb6789d9eb1c307e8a84 ; CHARGE = 0; SPIN = 1
C -1.5886108057710255 0.2909610691934333 -0.28673120697489124
O -2.715919842643624 0.4193213382867204 -0.44343914700914605
H -1.27086945909201 -0.8194108373619728 3.176557325196845
I 0.1069630628189251 -1.214203663174808 2.4867727822555077
C 1.1809676570468612 2.276574033562746 1.8574489024736573
H 1.2034225060914585 1.5469406880436198 2.6667503269023713
H 0.22280325319515273 2.793115629015892 1.8387111479592788
H 1.962606478642747 3.013277798209891 2.046886454124414
O -0.5856786540839156 1.2332154564558893 -2.588759094428726
C -1.3154230235903956 -3.588779630324707 -0.4084340759064029
H -2.130514539667205 -2.95405837703303 -0.7366094158312362
H -1.260333874408776 -3.6391274889647565 0.6737317960236019
H -1.3925456406537577 -4.57920393588977 -0.8405944559733473
H -0.4123542427806145 1.4396534653609345 -3.5306963161885703
Rh 0.24035087471578037 0.05400399467008665 -0.11863257884451921
I 0.546943019726645 -2.7065352142355383 -1.139126142098344
I 1.6796664037552442 3.321183992369392 -0.9882320085119273
O 2.2149149941107438 0.6375963137160182 0.35321177803577414
C 1.45668101982114 1.604082354678004 0.5388851146174537
O 1.4375910354921149 0.264671453760943 -2.557114977923691
C 0.41933977727449434 0.6067215596610048 -2.000586207898104
