23
## STRUCTURE-ID: 645bce68dfcc5801f06df3a0 ; CHARGE = -1; SPIN = 1
C -3.055886390995406 -0.8619533908152417 0.4534761542437981
O -4.108510420796987 -1.1933347394171974 0.8148574711871764
H 1.1556259269915794 -1.3327767255596092 1.0856375743246431
I 0.6739643704729452 -1.265747505000729 -0.41476970358584014
O -0.23314030448729922 -0.676862772466375 2.7324826260159965
C 2.855420608862857 -1.3356420879775475 -0.956484386727409
H 3.297964509257158 -0.43125341326059236 -0.5576769774595225
H 2.9173686999613517 -1.3672221939618594 -2.0379772471805637
H 3.2785823527880487 -2.2285081701771863 -0.5130587544894493
H -0.2195837301279417 -0.7405212705242172 3.706409439342098
O -0.6883355824531496 2.8199735409563487 1.073943489974169
C 0.15746797314023003 0.9766351723991329 -3.121727837732471
H 0.37267493976882765 -0.08229463370155501 -3.2417883042300955
H 0.8722596908213711 1.441857406640757 -2.4514313562549686
H 0.09950572004203413 1.49182128672155 -4.074428900871504
H 0.014455544346824034 3.4489074011642717 1.331603508213418
Rh -1.523689715920108 0.23005359278639126 0.3362888320962995
I -1.5136919026617237 -3.5257972927723036 0.913355152649806
I -1.814232467872995 1.1211116302301607 -2.1734628652295735
O 1.061007275956499 1.4641387784340878 0.8795664412045201
C -0.1633949978630567 1.592372944589609 0.7772733026562278
O -2.0984207578443637 0.4524267275690874 3.149443638243276
C -1.3374113413867108 0.002615714143006199 2.288468703609948
