21
## STRUCTURE-ID: 645bedf3dfa6314d167e8a96 ; CHARGE = 0; SPIN = 1
C -2.9848342446278853 -1.0232613888318292 1.4854928776930514
O -4.062173016312917 -1.1017291907623814 1.0865174141789526
H 0.22635744038236144 -0.31148826033400207 3.8891042607768873
I 0.13852539213982468 0.5371216648023361 2.448013202306028
C 3.1935386063489877 -1.6614169303460453 1.4194350361228
H 4.029267597603136 -0.9719794111087141 1.2905013220004011
H 2.747188622422054 -1.5311643543873246 2.411579222297316
H 3.5202106606822263 -2.702608800885421 1.3788152159157616
O 0.04964428472489422 3.787765571802884 -1.438545600254144
C -1.4407777085456255 1.7379456492394842 -2.3724105982136403
H -2.484053056542122 1.472714239545447 -2.2393904234243855
H -0.9373354981163041 1.0124426096335857 -3.00094514771772
H -1.3420574496317033 2.730557224859776 -2.78331092407448
H 0.6361000240364829 4.300787196086001 -0.8846596679471552
Rh -1.2271690402480457 -0.6196994749319533 0.5021655997358478
I 0.4009651533654569 -2.9786641742016986 0.6845799636908366
I -0.5073039680053295 1.7812309210830033 -0.5036144844389437
O 1.990839160907753 -0.665789337565529 -0.4586064231149967
C 2.210450400791239 -1.4085741262479168 0.41411800916002445
O -2.2670620304509903 -1.337507168603504 -2.191186033437125
C -1.890321330923442 -1.0466824588462396 -1.1376528212553427
