15
## STRUCTURE-ID: 645bea0bc6c9f9712551c314 ; CHARGE = -1; SPIN = 1
C -1.98027627151321 1.0958988915903884 -0.4495390779543429
O -3.0402032492968636 1.496241282774956 -0.3788180203844094
I -0.4100909521180878 1.7152431937140353 -3.3516933529835353
C 0.5051121632963146 -0.27187674816761326 2.2328606460958365
H 0.02749787172369427 0.5890556150704152 2.7061861584262497
H 1.5328983212658691 0.011456955529326698 2.0054544163121206
H 0.4905232623424439 -1.1198332729212654 2.9180694734091515
O 2.4175635995794362 -1.6631702018704293 -1.9946805332367405
Rh -0.20597733150635858 0.5422162771758493 -0.7105787561211242
I 0.6976250686486813 2.7116008614718456 0.4705000724910631
I 2.3368317724257253 -0.04784723660662519 -1.0721965515981022
O -0.6371436752922927 -1.825625303427284 -2.5086487305404983
C -0.5404998214636557 -0.9433262205060915 -1.7989306603853445
O -0.9357404619955026 -1.6382302136919389 0.9209057592836042
C -0.25812029609627485 -0.6518038801356139 1.0111091571861295
