20
## STRUCTURE-ID: 645bdcf93b33790866099ded ; CHARGE = -1; SPIN = 1
C -2.251870940672252 0.430295340173626 0.9842566150726649
O -3.38334775636353 0.3986370917012674 1.19909930259815
I -0.14477622488247643 2.8471952095912076 0.10502439147432578
C 0.040860080901059144 0.7909172210717315 3.457459199111846
H 0.7175074242973761 0.7311860953610442 4.314625019863454
H -0.9918319952347845 0.7117237016287865 3.7993477910559905
H 0.2181178703870762 1.7521111643766776 2.977933712590751
O 2.409101531152942 -0.3814268142501208 -3.748770507935732
C -0.23117836950262158 -0.26124733275027173 -3.2180403335081413
H -1.153803977118529 0.1556820302769102 -2.815207506433472
H -0.36545736148123037 -1.3019783966771508 -3.4906094155953062
H 0.1155125889477133 0.2977530139517589 -4.075353744735047
H 3.355827672454742 -0.3748196096791187 -3.6148008972253183
Rh -0.5850651550552886 0.27498367821124897 0.15788278532656314
I 2.4159625736599684 -0.03338000054513649 1.585109783982886
I 1.2693245727352422 -0.15376941841131372 -1.7269941033513379
O -0.9585443207767508 -2.5583328256682565 -0.7522996902441946
C -0.7938588362802614 -1.4995241056967221 -0.31930014439010845
O -0.041029589782844184 -1.471456556038375 2.583665466782754
C 0.3585502126144388 -0.35454948662780894 2.596972275559314
