13
## STRUCTURE-ID: 645bb4f90fc6603f2a39f2ab ; CHARGE = 0; SPIN = 1
I -1.6123997043299232 3.1019163276871136 0.7628640517493246
C -1.6686591757304183 -0.32073361545870765 -0.22123283078239434
H -2.360910306622239 -0.06617925938867862 -1.0305896862882011
H -2.160046911404267 -0.2903656415800698 0.7520097907500366
H -1.1860191796707276 -1.2824906006260661 -0.3958148585073703
H 2.10847371865245 -2.9591850053347315 -1.6353582007081366
Rh -0.24512123479974626 1.2195003551468748 -0.29052522335268455
I 1.9673760112386134 -2.630092332866842 -0.10479983425498436
I 0.5655530037805792 0.573935846945705 -2.627797435980605
O 2.4546876121531302 1.7372505532367801 0.6111621379841169
C 1.4626531516302703 1.1062681391882023 0.7331348503356184
O 0.15456072645464575 -0.49069816588856613 2.12254395768681
C 0.5198522886476219 0.3008733989389926 1.3244032813684596
