23
## STRUCTURE-ID: 645bce3633923604cc0fad20 ; CHARGE = -1; SPIN = 1
C -3.10334637666071 -0.6851639384228707 -0.0573084060940021
O -3.717360271353915 0.1831663930631946 0.42236303782482204
H 2.0284085807372647 -2.712020515381288 -0.41940625206836296
I 1.9089987043232859 -1.2287832322244894 0.1817707267030408
O 0.5030510148140138 0.7604015030458107 1.8714372722508714
C 4.191342380036616 -1.5481394960101709 0.2813524159566469
H 4.525484567379931 -1.6795715011427061 -0.7424418041289832
H 4.366098764606595 -2.4225878091554702 0.9004609445501962
H 4.610917674119664 -0.6526292029116021 0.7255108498822161
H 0.6176769647349163 1.5299169909592143 2.46235951067367
O -0.3143286686951364 2.435692081270345 -3.2038501162645456
C -1.9453418910283162 2.2300688176177146 -1.1055959410128608
H -2.821304115381886 2.1203526604234546 -1.7350384626379423
H -1.4530067961631872 3.1669505075919306 -1.3198803615584989
H -2.219944584127033 2.159044229053877 -0.05952682526694249
H 0.2817157339717045 2.1760118811914917 -3.906893104764765
Rh -1.0171970164801218 -1.0642095308421888 0.35306173698660287
I -0.7099758142864778 -2.9165021898867884 -1.5317507142680702
I -0.6103950370881317 0.6959375464959016 -1.577222397982561
O -1.6547396182833367 1.2824592641835346 1.9783730430523547
C -0.7941962376487527 0.5186950144566862 1.5426510106824884
O -1.4591532170735044 -2.3423913957699396 3.0097293385405868
C -1.2134047404534578 -2.0066980776055545 1.929844498944043
