15
## STRUCTURE-ID: 645bd5d4eba85608a1732d43 ; CHARGE = 0; SPIN = 1
C -2.7333925849668486 0.16581583197804967 0.6273524007623241
O -3.8412585840842675 -0.03826297146749121 0.7839383819030363
I -1.194693252200097 -2.3073848772833423 0.17105000923554298
C 2.0671037458587205 -1.0140104851265181 -0.15679615244268152
H 3.1223405397610366 -0.7761035031983106 -0.0005795580117031931
H 1.9281245704984609 -1.2846713085647885 -1.2079650008003042
H 1.7835139781730776 -1.8605633818536025 0.4628920831865886
H -1.2289671535901174 -0.8444747333287236 -3.1108410385079237
Rh -0.8299242008473386 0.3009147101746431 0.5206199259502994
I -0.8078767439181537 0.6201977506222248 -2.679743183796703
I 0.7352404547765625 0.1323987553514837 2.7906427223794883
O 1.5356841294469588 1.3353634189955437 -0.21382493698638613
C 1.3021413036787157 0.2134405361938093 0.10798818200438594
O -0.9433509924349772 3.2352280767823225 1.0671495551218844
C -0.8946852101517281 2.1221121807246828 0.8381166100021741
