20
## STRUCTURE-ID: 645be5c75edba95822108f18 ; CHARGE = -1; SPIN = 1
C -1.7900638903375405 0.29810464272261034 0.7857032064899682
O -2.734209435991631 -0.3453065651103235 1.006580579853571
I -0.9139166955783674 3.3222127289826924 -0.8674250493104265
C 1.2135980588110078 1.3714829910874524 -1.9347653267931533
H 2.224767079292073 1.076942355827665 -2.212578734699538
H 0.4937015822829631 1.0348992635234893 -2.682932472232186
H 0.8945003888926565 0.8735887144111918 -0.9603366620564739
O -0.07434859985693867 -0.31750528097307135 3.148586033480831
C -1.1568224567604453 -3.064595012976485 -0.23390976805379737
H -1.2042658351295694 -4.072082348569241 -0.6236277928330327
H -2.064291357901073 -2.8005343326789176 0.294346867781011
H -0.2912054267501648 -2.922944337139704 0.40066014743724937
H 0.2558523361377964 -1.0877850256403767 3.6520460293834396
Rh -0.19222830236723404 1.1876737967937774 0.8025056787967642
I 1.9970458618277054 2.35953977123934 1.6928578042363245
I -0.9530747114907699 -1.730806842561698 -1.8802740470517414
O 0.9524271899503135 -1.336542366128898 1.4519285469088017
C 0.32259908696833833 -0.3622783897956624 1.8535026880666055
O 1.878711094830714 3.7056202958255318 -1.934262271712406
C 1.1412240331702062 2.8103159411606002 -1.7586054576917858
