15
## STRUCTURE-ID: 645be2c2efac634e8f51c320 ; CHARGE = -1; SPIN = 1
C -2.415382966175719 0.4174624662410342 0.129865787096719
O -3.543228735522438 0.638113370661429 0.17571824620770624
I -1.008824377778157 2.3476116319173683 1.2763986001728296
C 1.6748155804463574 1.1909619045174713 -1.02392873062885
H 2.5636625998008307 1.7408805657622335 -0.7094352282741322
H 0.917614905358233 1.8940922609596402 -1.3763750196763167
H 1.9185133898864277 0.5304442214726175 -1.8588364847536654
O -1.5093888133035613 -2.851373348011373 2.7293526983815477
Rh -0.7141231553717525 -0.4586572633362054 -0.06841150443727975
I -1.107527014754955 -0.3419058179753341 -2.6779402334789775
I -1.2679809990441822 -1.012006524419087 2.5110839165279506
O 1.0594972980534079 -2.850514820799455 -0.22665382827261407
C 0.4857746703993279 -1.8583886066152242 -0.19502736343946778
O 1.7351393110319808 0.2123350188594615 1.1789082754571156
C 1.2114383069741763 0.4009449407654175 0.13528086911742315
