21
## STRUCTURE-ID: 645bee3bf6f6941be124642b ; CHARGE = 0; SPIN = 1
C -2.958632816554161 0.9313433889254785 0.9125760736381656
O -3.9605838144247927 0.9351760527652947 1.631570775145445
H 0.44403604856211165 -0.8947573370677212 3.612767605141001
I -0.8970645061634728 -0.03475947629871034 3.372513345316068
C 3.834960330317302 -1.0336032873652985 0.5796680577268893
H 3.454798757889043 -0.16249563442769044 1.1343290965815287
H 3.4519507723439706 -1.9451080383985764 1.0661941555311398
H 4.9332269225904435 -1.0325526294847214 0.6147909562551898
O -2.784075304556344 1.9997392847245443 0.06276582508666852
C -0.29950677669650877 1.014737662065132 -2.1928997491608673
H -1.3166527791988323 1.389286084765983 -2.1805404948072504
H -0.29634007508977256 -0.06255971919548403 -2.3155170324289323
H 0.2930867420875639 1.5037150044902066 -2.9547538035659073
H -3.495630290923939 2.65777082628598 0.1667541852346382
Rh -1.5671112599729395 -0.45232001665217764 0.7905157485643937
I 0.23310191235799624 -2.364373241616613 0.5246194422811092
I 0.558577151668592 1.458024732714551 -0.29335952116061165
O 3.0442804605885643 -0.9377864265181749 -1.7683719075437452
C 3.384473482077562 -0.9859668942866063 -0.7022692171574988
O -3.4277253888953494 -1.0870566765913643 -1.4468391419593436
C -2.6291695680070704 -0.8964536588339166 -0.6145143987179204
