20
## STRUCTURE-ID: 645bc92b0e5dce0d376ee1c4 ; CHARGE = -1; SPIN = 1
C -1.698193778961106 -0.19376093500324468 0.643502218305927
O -2.7114067398433583 -0.733202576289176 0.6565424132313172
I -0.4933209716920229 2.8467703893034346 -0.5546663096865707
C -0.4224682061513686 1.7598118371355582 2.835771902746041
H -0.12878468172178625 2.8025152039692065 2.70273396968079
H -0.313036977966488 1.5001683732402047 3.8882138066979346
H -1.4570047038150558 1.6507611230507777 2.519125624335429
O 2.118923613343959 0.23289562418349163 -1.7840724621914392
C -1.1785003628574684 -2.651835136813954 -2.7249116016359958
H -2.130149132676623 -2.889942794717658 -2.2646352399739667
H -0.36009025669323214 -3.1056463303304005 -2.176561605968785
H -1.1616564118007642 -2.935297355874585 -3.7699399736286274
H 3.0129911953243296 0.45508681965191666 -2.1088391546774905
Rh 0.06389589460651703 0.33864498470018284 0.1765160284966608
I 0.904108994526451 -2.174567842488225 0.5986390881704011
I -0.9193666754851749 -0.49892114927628706 -2.634024225570647
O 2.7954414552369373 1.3444335893956523 0.014838632384319587
C 1.8982028539676925 0.7207494079748862 -0.5343348658821157
O 1.6262003304277153 0.6053887338277882 2.4715194324999006
C 0.5542145622306718 0.9259480343606489 2.0445823226668804
