15
## STRUCTURE-ID: 645bea4f31de1210c25d491d ; CHARGE = -1; SPIN = 1
C -2.336231158932921 0.983224284160676 -3.101798510650922
O -3.2071137780996892 1.141088003830257 -3.828352696865424
I 0.4396750048367282 2.55320982931034 -3.199277638653161
C 1.417565829698042 -0.7366014132182218 2.5848525495448373
H 0.7084089884083716 -0.15383745360552192 3.1797815397132343
H 2.313618371496237 -0.12775261626432177 2.475501407238742
H 1.6200404525028784 -1.6702656222255892 3.1094599203241424
O 1.2849737975011932 -0.9114772155417703 -1.6216774786737818
Rh -0.9339327497516096 0.7789069898536082 -1.930588945096566
I 0.5880191782014402 2.494476756697425 1.7145925433859617
I 1.0964447957818244 0.46916616955425 -0.38259873356124113
O -2.27729512639388 -1.2972256635758772 -0.257253555695148
C -1.809809997497961 -0.4748738977296611 -0.9078026278327422
O 0.27226473721781863 -2.0089893322019363 0.8805902020403764
C 0.8233716550314741 -1.0390488190438005 1.284572024782079
