20
## STRUCTURE-ID: 645bed2e8cc8a215816df3a8 ; CHARGE = -1; SPIN = 1
C -1.6842492094296395 0.6694530903920186 0.15539970455230992
O -2.81684202791205 0.8147336037773913 0.2449850353292768
I 2.4495620769748743 -0.7304423565844015 -0.5837886481166912
C 1.9117163563350281 2.06507310084215 1.596725751067898
H 1.9343530934043882 2.933248619731939 2.254472791039943
H 2.3618900150683912 2.317275561164572 0.6361385090738213
H 2.491920610003309 1.2585238008670974 2.0488892065876194
O -0.724763494421433 -2.1631322636657155 0.6735999488792298
C -0.939532455474923 -1.5402140194155443 -2.7732419897530467
H -0.6080509869797666 -1.038923552407107 -1.8539270835294142
H -1.025344745567226 -0.825089064158495 -3.5821250722930085
H -0.2549288912114684 -2.3401422416279813 -3.02584875234184
H -0.819500179059065 -2.9298196949704307 1.2748070396766567
Rh 0.11707713466393274 0.35918538667629213 -0.041619965909911114
I -2.8615717760418646 -2.3793894545451852 -2.3900216319510643
I 0.2212444839890297 2.2476556455581425 -1.9787941444677875
O -0.40213591632677703 1.9625105985009033 2.2024623150945195
C 0.483100087250324 1.6140933442239358 1.4738708720465612
O 0.26095051037805833 -1.1689456156796423 2.4138808312176527
C -0.09489468564312795 -1.1256544886799091 1.2541352837972537
