20
## STRUCTURE-ID: 645bdf4ee9d4831c206ee1de ; CHARGE = -1; SPIN = 1
C -2.961149367812385 0.10596246618906846 1.193858151035602
O -3.9758508938064754 0.08079026998049568 1.7252391110332925
I -1.4259643047049355 -2.504711767180352 -0.4074807141017657
C -0.33564892323065487 -0.36492828376364056 2.0200621066440636
H -0.7850246467501023 -1.1859939987154051 2.5810627368945513
H -0.218784154139333 0.48636154364134415 2.6953723627872166
H 0.6556238182967333 -0.6898852512856747 1.6822840956527176
O 1.4483125581161853 2.3964234573853025 0.45900419432569883
C 1.955037101303073 -1.8513133703191722 -2.309499315519385
H 2.533522645275242 -1.8981706548537198 -3.221936761111075
H 1.1607210658199614 -1.1208609110792964 -2.392375074386621
H 1.5500289653151567 -2.8195302004601213 -2.0455561610299706
H 2.3387993439876826 2.0353736216281133 0.26070402379911456
Rh -1.4073867833030462 0.10199935488591881 0.2670594762438932
I -2.5468561225216737 0.9667808094392973 -2.0631105721752627
I 3.2515940333778275 -1.226036342516491 -0.7399718576951287
O 0.6338398170463435 0.710888099146286 -0.7771539067430345
C 0.46701772208128234 1.7109715272165984 -0.07016036709750163
O -1.4104565572850813 3.0626181279798717 0.7243728146331431
C -0.9273753170658208 2.0032615026815903 0.4182256568104433
