20
## STRUCTURE-ID: 645bc1525d916e20d20fad23 ; CHARGE = -1; SPIN = 1
C -2.8617206370755714 1.1490512255370877 -1.1126688735879016
O -3.976417084291244 1.316777810933155 -1.3248494131199537
I 0.521510277209237 2.4020085464510856 -2.8933082386956905
C 1.9592285926460935 -0.8478733299303655 -1.5609895572830583
H 2.1030531728160504 -0.27927817771904423 -2.4791744642510154
H 2.946805436523852 -1.1062960864019937 -1.178086629071332
H 1.3939486639826775 -1.7509330724872008 -1.7811745032419564
O -0.9366330935997025 -2.484458409789757 2.383335260720249
C 0.17970530225963627 -0.06411282102477417 2.388135614955591
H 0.5742479696776457 -0.7210524711490319 3.1502692238576544
H -0.7488853398504073 0.3848943121004277 2.7171959887345714
H 0.9002224861749627 0.6829532802214827 2.0759585410379384
H -1.2914766240562592 -3.3315792370225874 2.1079096046427668
Rh -0.9934950278001159 0.8873023181547892 -1.071030552845948
I -1.481835500360018 -1.130651676346036 -2.7127895145545105
I -0.24192301089427345 -1.2655782441491663 0.694016933387457
O -0.4598751829556618 3.093073614931183 0.8533720275103465
C -0.6948022733688193 2.239626205350754 0.1217653639313717
O 1.8381613031888495 0.8448503273539615 0.13847654866938197
C 1.2701805697730535 -0.01872411501400254 -0.5163633607959714
