20
## STRUCTURE-ID: 645bd96d85b93707dd099ded ; CHARGE = -1; SPIN = 5
C 0.2079707931791036 2.402062639604544 0.8961981148489575
O 0.4092663457929652 3.5982525127190526 1.163431537987997
I -1.654509781676591 -0.39392417399454516 -1.8561328418635656
C -0.7351775878271402 -1.1337164347535729 -3.715474382335301
H -1.300593193393597 -2.0022171479233712 -4.030752680548009
H 0.29789856472314313 -1.3803149100914869 -3.4921715905953024
H -0.7879486161982308 -0.33101911448285565 -4.442246223434639
O -0.8327726284516486 0.6217947028294732 3.973624413073061
C 0.9191492647291178 -2.552164185174169 0.13443186646822156
H 0.46955124822390887 -3.054799776750902 -0.7144606272013415
H 0.17092183682508016 -2.0824904441476666 0.7639911254612675
H 1.5577147041136785 -3.2162081156649935 0.7038184593765293
H -0.9745901260858935 0.8797426688449397 4.902309448965502
Rh 0.370349000946821 1.0915792258764354 -0.8669139039350882
I 1.142609355348777 2.4338666706727015 -3.0001478356235833
I 2.1696131226747415 -0.947851389651391 -0.6280288504824652
O -0.3457124893184257 2.803931131543112 3.7522991830112504
C -0.46323414620970055 1.693666922641666 3.2382213777154596
O -0.38989567210685855 0.1901005687993259 1.3817709197967059
C -0.23060999528947532 1.3797086491036352 1.8362324893143238
