20
## STRUCTURE-ID: 645bde8da4776f30cc0fad20 ; CHARGE = -1; SPIN = 1
C -1.6072147709092997 -1.0431982758177973 -0.8108204450061931
O -2.524098326664672 -1.4568441539081316 -1.4051700300072762
I 0.8459264325743595 -2.6904883444887373 -1.8231179463306364
C 1.303659706110483 -0.8719139902627566 2.9770803061763917
H 0.7093277699635017 -1.4436621957260927 3.69185152237867
H 0.9314272769915332 0.14909261295495674 2.938759255509498
H 2.340611031930173 -0.886153624186439 3.314515909597158
O -1.7401340633311655 3.423101888776208 -1.4272628828316711
C -0.6352615828311271 1.3349608952256242 -2.6868375739776758
H -1.4810617163156523 1.4787158084678151 -3.3463339578217997
H -0.16702095936077752 0.368316015882492 -2.8432562598980184
H 0.07106569991938094 2.1455598175471464 -2.8045222915111854
H -2.2158982125066187 3.9583150027518714 -0.7899638205361516
Rh 0.029618344548787534 -0.8749936263453953 0.14383117902393366
I -2.0658896874501727 -0.8080600373712651 1.960420896663045
I -1.3495871012235212 1.3941243550989852 -0.68519903622008
O 2.846704749471215 0.1906955972618352 0.1990435324424502
C 1.7325441889204354 -0.11216332311673859 0.26775344601664924
O 1.7288640774661304 -2.671116321145739 1.4733956289738257
C 1.2464171426969928 -1.5842881015978332 1.6558325673590502
