13
## STRUCTURE-ID: 645bb83e5b2b216d0e2fb200 ; CHARGE = -1; SPIN = 1
I -1.3921623299047263 -0.04188166592141398 -2.8807357979103076
C -1.7748626932805405 -0.535086538345388 0.4846492895142289
H -2.456242467158505 0.3132867605839149 0.3264365587771142
H -1.6274425202144116 -0.6682464677889753 1.5576453303868845
H -2.2439283183783454 -1.4357402765242908 0.08433158608716783
O 1.309480594837669 1.3588980595507936 -1.5859716709412157
Rh -0.0607750051382189 -0.0033826523572574557 -0.6015778873778107
I 2.514025214729975 4.660619970859352 0.9152437378721103
I 1.2608390029061667 2.1263017580815533 0.1501137425325301
O 1.5183406956204768 -2.3549607778128268 -1.1004671829877188
C 1.0809894952807775 -1.5743177974354188 -0.30716662421171936
O 1.037612292316961 -0.929953010247449 2.074218946262925
C 0.8341260383827326 -0.9155373626426285 0.883279971995842
