15
## STRUCTURE-ID: 645bd73e127d380afa507c63 ; CHARGE = 0; SPIN = 1
C -2.4239746063238434 1.038155673414862 -0.3839011901586436
O -3.484468779356755 1.3125672640165549 -0.6745460113960374
I -3.613334748822318 -2.4415242933104215 -0.8867452256712715
C 2.4846581239870824 -0.4031187228580225 -0.022885974852392663
H 2.5061614482012384 -0.5019311889275891 1.0639981372204779
H 3.460431781223263 -0.09024043129391654 -0.3990801327787306
H 2.2234892894011558 -1.3864900463975562 -0.4211467856172755
H -1.7849549000198535 -2.3244249961543257 0.8084524846767174
Rh -0.5525677260113128 0.6318802790168145 -0.16574803660247747
I -0.5518568743996445 -1.68047895237675 1.6318249621284457
I -0.7031413261714096 -0.8083707631021105 -2.3652117995376685
O 1.5671391267912373 1.5884836757328198 -1.0590516506945078
C 1.4699038957683368 0.5793928179912268 -0.4262463140467969
O -0.2682943458202871 2.6209050931823654 2.0731742958006683
C -0.32919035844687905 1.8651945910660892 1.2271132415294073
