17
## STRUCTURE-ID: 645bbd3f278ce567ba0203ce ; CHARGE = -1; SPIN = 1
C -0.9595904371403045 2.3553770424010896 -1.0717680713394555
O -1.2556060198857555 3.2112148454854488 -1.7815440608884485
Rh -0.3946603791492175 0.8449642552679969 -0.13550898648821932
I -1.319809214924249 -1.6570569788324394 -0.0771625465963242
I -1.2542152987669415 -2.765678312073884 2.4491827716481294
O -1.4304764710078581 1.8220201363718571 2.499262613251523
C -0.8862636964104608 1.4669154674298455 1.5581999067573595
O -0.8511540240239689 -1.0002553601548623 -2.1938356218474317
C -0.3364127257536987 0.11816203311866817 -1.9611202550147357
H -3.140202240327211 0.5879685632110399 -2.292029804335124
I 2.1799543733706055 0.04216907011327614 0.43420756624911977
O 0.2416270762680151 0.7345136737080455 -2.999941941789232
C 2.293430758028201 -1.3462663205597887 2.164028421131602
H 3.3387201004950877 -1.3655613654586165 2.457578560356437
H 1.9482204090496773 -2.321378811261729 1.8342349140173533
H 1.6562552116403266 -0.9577733672621543 2.9520497788156685
H 0.1701825785377598 0.23066542849620286 -3.8358332439282092
