20
## STRUCTURE-ID: 645be12f65208e7a3a5c012d ; CHARGE = -1; SPIN = 5
C -0.8504367844354508 -0.7228643712868011 -1.856286913530813
O -1.4208091570399137 -1.7589632022092467 -2.1379802832777592
I 2.4248557981954737 -1.1069118694201676 -2.279143933424016
C 2.1245664580638848 -0.28295968462367893 1.1191215586070706
H 1.7319717442242684 -0.35116229356817635 2.133524172006066
H 2.4288610788384535 0.7418249435589772 0.8943971297975288
H 2.9702763442861313 -0.9621643236310363 1.004061353812326
O -0.4262344914908628 2.836271448802404 -2.686947187544423
C -1.4318633949795179 -0.6472875213133219 3.1737749896561303
H -1.9261396753421964 -0.04776971426279541 3.929599233883236
H -0.41262175701701315 -0.8864967427961222 3.4563534389806625
H -1.98784238231376 -1.5509924353607167 2.949011584120319
H 0.1363451300823722 3.5404398716303325 -2.310233065137771
Rh 0.5884615928070097 -0.7482376780378993 -0.3611608936599259
I 0.12404394993467202 -3.121262551716325 0.7246170022247654
I -1.3504844295400347 0.5532025711500722 1.3454757656687641
O 0.5131025089001074 1.5972099940420286 -1.0762442763310316
C -0.2666950074657308 1.6874478599983163 -2.039955869284149
O -1.905682025529563 0.6584789973742456 -3.4568713480412017
C -1.0636755001783147 0.5721967016699068 -2.5251124585258355
