20
## STRUCTURE-ID: 645bc10db1236f29f536ef53 ; CHARGE = -1; SPIN = 1
C -3.1100696460094976 0.6635578448493525 -0.79639917599097
O -4.253790501132233 0.6506516916315215 -0.8823604216585061
I -0.18120676194006616 2.393138934113615 -2.9418143409803283
C 1.892726886998486 -0.5533818246405822 -1.7617779271284524
H 2.9381325760059402 -0.664157875489427 -1.4724324812238956
H 1.446897435750555 -1.5306412322695448 -1.9337260539885273
H 1.8679092134037822 0.024050298613874168 -2.6853433173116636
O -0.2670281136821747 -2.558563055929479 2.4717471810647407
C 0.44279512253315817 0.006558379294270149 2.353732743226442
H 1.018908509458238 -0.5658713872064982 3.0668512166977084
H -0.5042480700133044 0.30655700394315144 2.7840919173485643
H 0.995147204439371 0.8539676140431819 1.9645187843565073
H -0.5204798765110372 -3.4534835466085196 2.238897466944323
Rh -1.230691051880203 0.6988836101287864 -0.9589460788385066
I -1.567960319025712 -1.401195723959338 -2.534257995763808
I 0.03689732164648777 -1.2753883921499485 0.7155648624397312
O -0.8519452813681917 2.995914013672513 0.8940945142550762
C -1.0247290794122204 2.103177406644008 0.19275117740356212
O 1.6806967785091897 1.1304288145934682 -0.06287045861744178
C 1.1920376522293996 0.17579742672559776 -0.6523216122345543
