21
## STRUCTURE-ID: 645be95c5839746bbd6ee1ca ; CHARGE = 0; SPIN = 1
C -2.3545636034031925 -0.1070910979627438 1.8675810281700396
O -3.2526288091538054 0.4927021792922445 2.252579610539188
H -1.6478177325945758 -4.003924802333418 1.2244712199079932
I -0.6279558907215212 -3.36039581964896 2.2405681086369422
C 2.1740680941137898 -1.6205084622630657 0.5625955922232122
H 2.2882026505662876 -1.7987388912071878 1.6309299604241148
H 1.7928037475209173 -2.534442606280458 0.10536551437982015
H 3.1388556122555773 -1.3745223805332305 0.1172677816554412
O 0.5897556248983874 2.3903717376408533 -3.6107546839013986
C -1.1935024701053776 2.0080843161959856 -1.3842536142109518
H -0.9433899923055966 3.020513250629245 -1.6747305449091006
H -0.8305380615146107 1.7810008103461095 -0.37883787057111545
H -2.2600461769927014 1.8279274197713478 -1.470017619876496
H 1.5369315594298036 2.437253492768348 -3.4770910358796216
Rh -0.632883178513416 -0.5124100479305295 1.1627874176918345
I -1.53409972863203 -1.3709386072659662 -1.3531112964525085
I -0.17058112792860408 0.7726699910856422 -2.770138420332997
O 0.9372291403278051 1.3927100074395058 2.8750490307539844
C 0.29789109777179756 0.6659731131151866 2.250785786885957
O 1.5038643504293006 0.3927563794157027 -0.48197467756592705
C 1.1884048945517878 -0.4989899822746114 0.3109287124315392
