14
## STRUCTURE-ID: 645bbbe1701db057e50203c0 ; CHARGE = -1; SPIN = 1
C -2.9171161894079067 -0.8332930768401999 0.29179797854238854
O -4.0271800796583905 -0.9888333609086739 0.5365256728060346
Rh -1.1475415360636818 -0.28920634883710794 -0.08949002571354635
I 0.7883891564859854 -1.8827325061594513 1.3606509392637742
I -1.5684402003213607 1.216391351087427 2.0746729154525707
O 1.710839632195759 -0.5585453735673939 -1.2140100139872592
C 1.406002479219517 -0.12335415543658496 -0.1456733051215723
O -0.97707220436977 -1.8978529856569368 -2.5899042469453315
C -1.0429497408324733 -1.3026424824619591 -1.6107442517433825
I -0.6796246818033229 1.9180512590008485 -1.7310173466158
C 1.985386177782235 0.9845643237338806 0.638677781753077
H 2.93416043465814 0.624282961166394 1.0436023468506372
H 2.1756142256108304 1.823176066199988 -0.03265965688599446
H 1.3595325265044562 1.3099943286797733 1.467571212344401
