13
## STRUCTURE-ID: 645bb91d6983ee16232b1b76 ; CHARGE = -1; SPIN = 1
I -1.6332113787648095 -2.741434120326623 -0.26050485670278156
C -1.4302218785961758 0.683069368378323 0.26564781875993304
H -2.039484422885552 0.7603501178225445 -0.6409147269597083
H -1.0440643601542032 1.6743552867124947 0.5231042503269328
H -2.078268154334926 0.3516088409221033 1.0798070272908185
O 1.332039147226842 1.2115071609530308 -1.660786509640254
Rh 0.1271070515804203 -0.6846159848704009 -0.13816143853509893
I 2.4025610938758413 -2.0586471036510083 -0.7966965760632956
I 0.11823341141382585 -0.0847012259937125 -2.8638787429246566
O 0.6383390676851638 -0.7943897049544928 2.7775693151098713
C 0.42875007883773625 -0.7350571958351346 1.6561889209788818
O 1.8873150572573243 1.5167214043922017 0.45908320417109616
C 1.290905286858516 0.9012331564506768 -0.40045768581173485
