15
## STRUCTURE-ID: 645be001fb75cc05ec36ef50 ; CHARGE = 0; SPIN = 1
C -0.2053068873138418 0.24540933952705052 1.8882416816826666
O -0.5445175617975212 0.7922742350479053 2.8338035244898108
I -0.4913488845526358 -3.6910891247595554 1.3178302407355436
C -0.09206860673628114 2.25389844901494 -0.8836585011539639
H 0.6179095573811271 2.0143043057268515 -1.6754934838215716
H 0.4771138986493668 2.616062265902209 -0.027858490720160115
H -0.7771017138620859 3.0290482752844734 -1.228870779038713
H 2.8294878900984086 -2.8668976902339365 1.5024178003980933
Rh 0.1556709732398805 -0.6077887936563451 0.26266937011079244
I 2.856875229897234 -1.3763317147159713 0.9633495219544104
I -2.467206778083654 -1.9878757730015824 0.40988245603533263
O -2.070264171971062 0.945758149532128 -0.6486525817478226
C -0.8668156915637727 1.0147972511586665 -0.5080357371927628
O 0.27243821724277084 -1.3125504036387878 -2.6613570508029585
C 0.3051345293720587 -1.0690187711880232 -1.5442679709287168
