15
## STRUCTURE-ID: 645bd6dc93ca5740482b1b76 ; CHARGE = 0; SPIN = 1
C -1.469876237064364 0.2928966787257893 -1.130662777936195
O -2.4449478574238253 0.6558422728675772 -1.5756707281925038
I -0.9513580040489172 -2.674685204043308 0.4252659229061261
C 0.7661772234164268 -1.0675704867414695 -1.9554124290386368
H 1.5736448945315031 -1.7557905072724465 -1.6963922677171408
H 1.155534576481762 -0.16662726791006252 -2.444252731319874
H 0.04302179341186532 -1.5717061502280352 -2.5924384809667473
H -2.9363992909490553 4.175272710142933 1.61339387561093
Rh 0.023475200294435467 -0.3145391641347188 -0.16393943022155832
I -2.3031109486208377 3.908349210985799 0.2040222926528576
I -0.34294560304465393 0.9476845470260837 2.3588347187030614
O 1.4153910467196542 -1.5507102569456002 3.1910591358072358
C 1.416135957699762 -0.7296653086068838 2.3621395913285324
O 2.414775887281953 0.2730598958959419 0.3935439399419021
C 1.640481361314303 -0.421810969761639 1.0105093684420503
