13
## STRUCTURE-ID: 645bb58f71ab8f205232ebb0 ; CHARGE = 0; SPIN = 1
I -3.569505289851515 -1.8840500968868386 -0.9927415354192974
C -0.9929760507442238 0.535559369741334 -0.4565121979165694
H -1.0747183756320404 1.620516647217181 -0.5492654671340426
H -1.6283200015487367 0.14275049459920544 0.3327642600480407
H -1.2012780499617923 0.03735160057085936 -1.3995427858503082
H 0.21570108148392053 1.391471423643211 3.3164745388167067
Rh 1.1057757874940377 0.17970267285297156 0.05743856421599765
I 1.1688416581978613 1.8854807194625678 2.1385918126027628
I 2.3264776646364798 1.946339697247754 -1.42635343605703
O 1.5058181374554012 -1.5079380363901287 -2.379117013218694
C 1.3706873358538623 -0.9014107978613242 -1.4327446152787018
O 0.21615899724920626 -2.173743354049309 1.69208319037089
C 0.5573371053675366 -1.2720303401475073 1.0989246848202463
