15
## STRUCTURE-ID: 645bdfb433bdc5738f6df39d ; CHARGE = 0; SPIN = 1
C -1.790215536307637 -1.2261287971427315 1.1388103699989882
O -2.2158366052082012 -1.0340869932107308 2.2137154788808906
I 0.8408064580526516 -0.10418204490684518 2.7768840131537
C 0.5774406015719962 1.881700871592993 -0.5873078241027276
H 1.1024006997871318 1.4835249871149272 -1.458610741789625
H 1.2970151213856655 1.9959982382111907 0.22775871169586404
H 0.16545434080859178 2.860906133691218 -0.8366111517984447
H 3.6058757902666314 -0.496338851122971 0.7792980422000726
Rh 0.035692402779865975 -0.8508396287069833 0.4274227516146878
I 2.791571531620626 -1.1181756188440086 -0.4330515598675124
I -3.3299856180401046 -2.162607275726916 -0.2817892011087116
O -1.7163015842385783 1.2473833614454277 -0.17631243098678837
C -0.5566958908948784 1.0002858291841918 -0.1952168641416422
O -0.4451933463096868 -1.9477809996119468 -2.3239104069852488
C -0.36202836527405047 -1.5296592119667898 -1.2710791867635485
