20
## STRUCTURE-ID: 645bcb36313c8a5209108f0a ; CHARGE = -1; SPIN = 1
C -2.5543040731113265 -1.461303950800091 -0.7286705891480669
O -3.6789920083305816 -1.7311438175927472 -0.9113398915853967
I 0.31023406421879074 -1.7195425982156824 -2.5591784167483698
C 4.334808368493938 -0.8852462725499335 0.2127496223594558
H 4.264333777898665 -1.7743876003339618 -0.4154397893012782
H 5.091878339017835 -0.202229315701234 -0.1716561694658636
H 4.576625693059069 -1.235344396533477 1.2157792223850639
O -2.4400245389002326 0.5689921394996894 1.5369415505052175
C -2.077845248848204 2.457278717482887 -1.156444675076455
H -2.7958910664635015 2.0493229692241197 -0.4554120375463427
H -2.25917604209697 2.0717878525862337 -2.1528916704430494
H -2.086805293763115 3.5392953060390213 -1.1474696360889907
H -2.8998635341731926 0.662009313901264 2.3932115040133835
Rh -0.8636730891683767 -1.0034945607525532 -0.2253247381490908
I -0.13722357292778756 1.7939651473574105 -0.5409710773586459
I 1.3806087743241977 -1.6340215987026516 1.1827805905101223
O 2.6516637643542493 0.8336612980629566 -0.10785048758946642
C 3.055016549603179 -0.21190643694636047 0.22407634012064614
O -2.0221408982846736 -1.4493719374946463 2.371092098741837
C -1.8492299649020683 -0.6683202585308187 1.4360182498651892
