20
## STRUCTURE-ID: 645bdb110a81b44f92099dea ; CHARGE = -1; SPIN = 3
C -1.8404193298973488 -2.7029332345761192 -0.003733832126368805
O -2.2226059683167674 -3.7827088962926196 0.06740230980889071
I -3.1950977581619897 0.5781567845613915 1.115318727492146
C 2.8205761733814247 -1.049928933372287 1.6664400947482072
H 3.0344820884614485 -2.0597592695207716 1.3231562807281159
H 2.6546193600918353 -1.087251126569079 2.7436619781471085
H 3.6523148764402458 -0.38248874143894834 1.4560592634204153
O 0.7580849443858173 2.2793531003869663 -1.3201521852748517
C -1.958551327728235 2.5256318864556286 -1.430393676288465
H -2.607017004951731 3.1508853545412796 -0.8260774505584229
H -2.541030735640012 1.8143664020895869 -2.007725954499891
H -1.3274339614136181 3.1178046594461586 -2.0820531256923247
H 1.614930900863448 2.070720641154538 -0.9495932207036641
Rh -1.233735162958087 -0.9734166150636745 -0.19068441822643792
I -1.3749980498320962 -0.9920333272581854 -2.912432296026438
I -0.5615076248875476 1.4916543782743723 -0.15186438509649172
O 1.538335861009297 0.7148137751733286 0.673270259524277
C 1.5773064462744424 -0.5361354745679208 0.9875502432298368
O 0.6682223846202601 -2.6899822652059298 1.0816895748652195
C 0.5435238882591874 -1.486749098217656 0.7601618125291696
