20
## STRUCTURE-ID: 645bc458ba637331462b1b6a ; CHARGE = -1; SPIN = 1
C -2.3620735960564456 -2.0933383536733077 -1.7765900384526998
O -3.2952562581431657 -2.559865140823022 -2.265604993717802
I 0.688225952262534 -3.224478847140037 -2.1088423836715617
C -0.8467645566885755 0.3134495552577471 3.8267938558119083
H -0.9474025982521229 1.3572714554827787 4.121705674884881
H -1.6378155881159884 -0.3000083335716401 4.26193734613836
H 0.09229564636439012 -0.10980062557129731 4.184984843188928
O 3.3845276502710115 1.4214946992915265 -0.5522230285404219
C 1.5773737163190398 0.846552572982445 -2.5554407357200644
H 2.420857311290344 1.5195232356246722 -2.576602587203996
H 0.660320090257376 1.3518538301619867 -2.844206823379735
H 1.75400579412643 -0.01604362640903749 -3.1905319946431865
H 3.862302245926063 1.2966255584796005 0.2670414729693822
Rh -0.8383547080793201 -1.2428634713304219 -1.1510716451932215
I -0.6318789718046879 -1.9617165406915673 1.7056739095559847
I 1.3618413893456933 0.1587290259178225 -0.5676426405240272
O -1.7880166860913582 1.582195616061429 -1.4367528860704237
C -1.4948343072168861 0.483148340982022 -1.2225882427154966
O -1.0585776632835977 0.9682162091002459 1.498244651457243
C -0.9007748624307254 0.20905483986808437 2.3817162458259187
