15
## STRUCTURE-ID: 645bdf341a82481f547e8a90 ; CHARGE = -1; SPIN = 1
C -2.8693844060582965 0.41176230317022045 -0.5844389087828556
O -3.976869715804493 0.5375420089856608 -0.8635337247366229
I -1.0401883223293462 -0.6227728311832068 -3.041066535317697
O 1.8611483611549289 -1.83911527222915 -1.4664520650428388
C -0.1848896104415072 0.9533034970051331 1.8889630993437334
H 0.8857625347949112 0.8522100873603631 1.748440818080554
H -0.42232631166612133 1.253018309222375 2.9017045073117407
H 2.2456549597770694 -2.7014052844263365 -1.2109581260540727
Rh -0.994613185568459 0.3005036878451063 -0.5028711107149845
I -0.7981930608906967 2.77212487747587 0.7455182107038878
I -0.9853565265905628 -1.1259338617539 1.8579834949414216
O 1.6219176426308937 1.2787498461885136 -0.9938808208009744
C 0.9675796125445348 0.26917951650906885 -0.745617787520569
O 2.005570392196125 -1.308637049987094 0.7058496894901395
C 1.684187636251016 -1.0305298341826132 -0.4396407409008779
