23
## STRUCTURE-ID: 645bd2cf9a9f0641e22b1b70 ; CHARGE = -1; SPIN = 1
C -2.940847860493953 0.2670726603178772 -0.4438976878790935
O -3.61833857813909 0.7179988141563517 -1.2885134261111886
H 3.26371773993986 -0.44973758359921284 0.730810307448613
I 1.6586241420671184 -0.23844141879326428 1.1157060889387787
O -0.9909257059693994 1.9629539991582434 -2.1977167626611633
C 2.009483779780423 1.8040950659293904 0.6557170931896958
H 2.095102840153185 1.8697843366811 -0.4231319741343605
H 2.9219629112333076 2.1058908314216436 1.155333950547039
H 1.1618915180128595 2.3876738919176312 0.9965967216318149
H -1.050196662528618 2.9230413476731956 -2.371945134376102
O -0.2769359690693385 -0.9801930503153246 -2.8479678337604883
C -0.4692345536982687 -3.1711389752121066 2.3468623203916024
H -0.32675786707425253 -4.241531458674234 2.4362502005303877
H -1.2470712114511677 -2.808757135323251 3.0102927039412806
H 0.45955543158105494 -2.624513544443103 2.5008615013839504
H 0.37649641729199734 -1.0685758204538638 -3.570787503093847
Rh -0.9779570206354783 -0.1311844684769961 -0.24031496035070649
I -0.9339966923659084 0.5093030817999262 2.6738930036127337
I -1.1169353155715904 -2.779548334450887 0.28457621486912876
O 1.475368636995901 -0.10262118847435704 -1.8043310187952555
C 0.27365043341069184 -0.40519910656610947 -1.7511979801454796
O -0.8443281983646242 2.7254630454839397 -0.12110828440607027
C -0.9023282151047027 1.7281650102434554 -0.8459875407712883
