20
## STRUCTURE-ID: 645be0861102ce4d680d4d4d ; CHARGE = -1; SPIN = 1
C -2.7092949105792314 -1.5585502745058775 -0.2439635150938187
O -3.590019589736658 -2.2739179215282554 -0.09859920389682883
I -2.119548741391658 2.128689702203 0.492018179254494
C -1.3394516171485067 -0.026734434028728535 2.562865277771511
H -2.320135411746564 -0.39823715750853517 2.2740603277880216
H -1.4730552353309865 0.6663671932735201 3.398600664179983
H -0.6922024443287308 -0.8434339603274776 2.8843922944978146
O 2.6625834252197267 1.9330308660287616 -2.7932716643630067
C 2.55080580007442 0.05750983571368845 -0.7914476307071358
H 3.3639942578831112 0.6736765748145893 -1.1412755693250758
H 2.75476075011352 -0.9909673481621604 -0.9788453740450856
H 2.3545007231323503 0.23392800773877878 0.2587689469340422
H 2.3626254140415677 2.481362213555704 -3.5174352770425514
Rh -1.1693034558639983 -0.6056741365826444 -0.7437083933934427
I -2.3515330042916576 0.17584178002557815 -3.0046007436309385
I 0.8599579259407393 0.6299999442857885 -1.919514307375143
O 0.4882069020255657 1.005545865378691 1.3570956672186734
C -0.6742445551040173 0.7426954731015523 1.4818876566646941
O 0.9367808912419041 -2.362561473246153 0.4606585734197349
C 0.10457287584912463 -1.6685707502298006 0.062314091144077065
