21
## STRUCTURE-ID: 645bedaf3082ad5f10108f19 ; CHARGE = 0; SPIN = 1
C -2.644254821550441 0.6568314504803769 0.720661898789543
O -3.721425208771821 0.8897097636651867 0.9685162389451004
H -0.7106970119728782 -3.268921259921522 -6.3686641035774985
I -0.11549376019460963 -2.671567124860505 -3.6022957686212433
C -1.308171721437762 0.9143189788665917 -1.6036189005048869
H -1.8454943255519607 1.8581811636014396 -1.670112886139789
H -1.8794710407912518 0.15276200619936592 -2.1388146578540503
H -0.3332994665827317 1.0298003073745574 -2.083409516975398
O 1.699101646006426 0.7622913125346306 0.6894656544106603
C 1.553618315732579 -1.9145093057078786 2.612371050774737
H 1.7065736485171275 -2.1372072274782727 1.5556960545309821
H 1.4512633134183432 -2.8133343931379042 3.2118583311166207
H 2.2808886756669824 -1.2252231138701466 3.0270751695333122
H 2.6628518264551926 0.6265207189013614 0.5532646716573002
Rh -0.9059988123385591 0.21576262402384347 0.3071649847780178
I -0.36468399214675556 -0.9020372325939915 2.704786886338992
I 0.4380506782748563 -2.1194524624045092 -1.0007873592962853
O -0.8670709191438207 3.019473446591819 1.017189917124641
C -0.2579597380496169 2.065558603223533 0.6998528553714933
O 1.8938429130480303 2.8914592121379314 -0.01831510257141516
C 1.2678298014126863 1.9695825323740785 0.41811458216917907
