13
## STRUCTURE-ID: 645bb374e086146325507c60 ; CHARGE = -1; SPIN = 1
I -1.104302631087394 1.0229510284853898 2.621201607539816
C -1.4367958008325978 -0.3871677964759054 -0.8318624003008169
H -1.0902480068738198 -0.17842979234151207 -1.8443865487920692
H -2.214169838810863 0.3266343038244472 -0.5417654658641975
H -1.8267495636841369 -1.402320178638985 -0.7848531190315174
O 3.006262902344467 1.0057668041872354 1.333551576232392
Rh 0.11352813806340281 -0.011302612752423462 0.5578330960279787
I -0.41200044696304017 2.924527873914337 -1.5481235846426489
I 1.8040063721220059 1.9828264094354457 0.2641830285620907
O -0.3923246678569802 -2.7186742191106203 1.6840424463758115
C -0.28415334987337654 -1.6957124304260842 1.1906435598298455
O 2.3483384810044665 -0.6403815834449751 -1.379285093797732
C 1.4886084124478718 -0.22871780665635072 -0.7211791021389454
