14
## STRUCTURE-ID: 645bbb76954fd3314d0203bd ; CHARGE = -1; SPIN = 1
C -1.536838039558751 -0.14866169742056773 -0.40225255406942856
O -1.9051400377175904 0.9948992980079613 -0.28698560586839245
Rh 0.09946955341282195 -0.9706796155279234 0.1545545824879929
I -1.9678529959794135 -3.2025338034845485 -0.28765191384053695
I -0.5754697903849781 -0.8594594673628345 2.6761172946520024
O 2.5208046314390975 -0.4524365535000719 0.9130100979252688
C 1.5852573222458202 0.2294874503690579 0.6057476183041437
O -2.796624816201093 -1.1008074899851008 -2.221468668779024
C -2.2720018144375675 -1.1979509472934375 -1.1604018692566742
I 1.0733677838704672 -1.2064889487376902 -2.2725319615070148
C 1.4571915878310573 1.705788057580315 0.5638729037044763
H 2.3183409015007808 2.1166993131630383 0.036952342302542476
H 0.5305626070723088 2.0273830424284007 0.08631168905115917
H 1.4689331069070466 2.0647613617633964 1.5947260448934772
