12
## STRUCTURE-ID: 645bb399b2270365620fad23 ; CHARGE = -1; SPIN = 1
Rh -0.580349173728445 0.5706527878136485 0.045285828494969343
I -1.7056585016058166 2.213832308254298 -1.5665504362642029
I 0.9908404067835759 1.8433682052612848 3.006458869403035
O -2.5380697641482697 -2.161847203149356 0.8578686853374689
C -1.3987349827794704 -1.8438146573304197 0.5958887709637295
O -0.24385841016874998 -1.8027409502634986 -1.5432586018797423
C -0.7707207917624166 -1.3024243620178877 -0.5855330374976307
I -0.09378935259222045 -0.8776781592174107 2.10858150300578
C 1.346081616039841 0.7935511089222681 -0.6423091676398526
H 1.356624672906698 0.6329829703817828 -1.7228208639633538
H 2.0317211842579517 0.102859134415172 -0.14933322576396652
H 1.6059130967973112 1.8312588169300947 -0.40427832419624865
