15
## STRUCTURE-ID: 645be0ec56ef013243246423 ; CHARGE = -1; SPIN = 1
C -1.9994397437030753 -0.7585946870628467 1.3541826152570116
O -2.9995646885091856 -1.2993252801745185 1.490091977482525
I -1.579807389752077 2.4961909562248565 1.7629062161905504
O 0.3639612180946731 -2.4931872437437703 -0.8226794597515562
C 1.3026027582928617 1.215422205989081 0.7016765743851138
H 1.8038623766357298 1.2154531143369844 -0.2683289650138344
H 1.600340313910171 2.0980783163391292 1.2676031731306008
H 1.0980371606502188 -3.108702874680623 -1.0318524234537088
Rh -0.45749114955217546 0.25279597360137973 0.9966954742740163
I -1.2853504167964895 3.4076272211003213 -1.580576006532732
I 2.0175344686237415 -0.5250483602401127 1.813853848264977
O -1.4371491762954278 0.005034886856098194 -1.6529432608275492
C -0.5670579044055772 -0.3348762181277217 -0.8999554438416547
O 1.5637969542017 -0.9022505876127835 -1.8611412175075148
C 0.5757252186049258 -1.26861742280548 -1.2695331020562597
