20
## STRUCTURE-ID: 645bc0dc34d8063c125c0124 ; CHARGE = -1; SPIN = 1
C -2.5859810413190463 0.8467428285299443 -0.29146649419485715
O -3.400794015776878 0.9881255712911293 0.5024250017128775
I -0.8091869613637633 2.2706690412961157 -3.063905785856143
C 1.8719548589862933 -0.002573107013953974 -2.479987100166144
H 2.1349467094035264 1.028228238593751 -2.7222164090502377
H 2.7793673746816134 -0.6035108390308328 -2.431057772163136
H 1.2156792975300628 -0.3708296627178791 -3.2666809115815547
O -0.72234556545102 -2.6631419230683107 2.8477537073747974
C -0.09443985254679207 -0.04480619979808234 2.5429982961925783
H -0.07849601456245066 -0.5927453118608795 3.4736007601878502
H -0.7672816984345641 0.8047492476619218 2.5961156312965454
H 0.903749592039362 0.26209923141021624 2.252345024677359
H -0.9792665297209534 -3.5617527177669146 2.6363279571387412
Rh -0.7637636383873023 0.5199807905503386 -0.9083501820174934
I -1.4844184284018775 -1.6951357279277357 -2.192792053847541
I -0.7999242882463987 -1.3872440380412585 1.0692213062521063
O 0.537664247897356 2.731966974401584 0.6210885605926767
C 0.004952406687837458 1.866168203717545 0.08757551271276914
O 1.8335483710151343 -0.3798423204938705 -0.1459451112311294
C 1.204035175969852 -0.017148279732863352 -1.1270499380300703
