20
## STRUCTURE-ID: 645bc5272e75a254a76df3a0 ; CHARGE = -1; SPIN = 1
C -1.6489510037110962 -2.6449812394263854 -0.8416786903708792
O -2.1287569272029714 -3.546409418903274 -1.3767520045608515
I 0.07979441329336709 -1.1447536248805636 -3.8207596647448723
C -1.0750443593157746 0.5040035411021886 2.624901191484633
H -1.8043836059077738 1.3149377651404022 2.6027328036495576
H -1.6097236797143473 -0.42461540468738485 2.8392186435671984
H -0.3350654230368968 0.7099184362011577 3.398051579479502
O 2.9107649944549827 -0.08782129349656478 -0.1093516039274237
C 1.2881030607601809 1.3968702173711256 -2.024817366134111
H 1.8764184551585574 1.9696877145030431 -1.3191749955423808
H 0.23447030478065684 1.644827622268847 -1.9429830855052337
H 1.6393576202719036 1.5251626731049808 -3.0435634378340786
H 2.486376096208695 0.21633048065282814 0.6922078739804991
Rh -0.8006737176177103 -1.2915072261522775 0.10320962753800551
I 0.6083748652762736 -2.848746010748705 1.7439680044114214
I 1.5729692607110497 -0.6441906510153358 -1.4599716600223747
O -1.9862811804454192 1.4654772383989412 -0.3466640645527997
C -1.5499905466354558 0.4011947576126121 -0.054085171738256124
O 0.6541484927172745 1.0337884250318436 1.065389546019182
C -0.4119071200455012 0.4508259979225732 1.2701224748032254
