20
## STRUCTURE-ID: 645bda71b744a1280f5a483a ; CHARGE = -1; SPIN = 1
C -2.5676021247441687 -0.5864687597072192 0.6145307599595377
O -3.74552138675313 -0.4135653321882532 0.8282181363697958
I -1.1377298337953914 -0.4565053513441761 3.4388711589040337
C 0.3105978330476774 -2.2778773006634254 0.5782814225205237
H 0.4010786820997362 -3.1083113048632045 -0.12335294408777743
H -0.07129003186845269 -2.6664051209269104 1.5194617853166836
H 1.2945048046104861 -1.8346226512766486 0.7297354705749017
O 0.9623254822613369 -0.44526373566702165 -1.5173604056851402
C 2.058282614108249 3.0634926198144665 -0.1368333570674588
H 2.2664017892323187 4.033308283636327 0.2994929284735538
H 1.2481589037699459 3.124805293406386 -0.8562894681118391
H 2.947187755286986 2.6233796533045872 -0.5720289897365336
H 1.2270411796745284 -0.2971380804774795 -2.4468194209957392
Rh -0.9998389807008807 0.4880549123759358 0.9778104996634627
I -1.6909905722120884 2.0361255188896443 -1.030971349817639
I 1.4040114335451817 1.7523721843030182 1.4747818353814428
O -0.9638824748950274 -1.1701157573604783 -2.393984086476876
C -0.26991861484135066 -0.9404450408040786 -1.4271721653610276
O -2.028518846857029 -1.6770369108368006 0.04881112688509968
C -0.6442976109683594 -1.2477831196151217 -0.005182936708917395
