15
## STRUCTURE-ID: 645bdffdfb75cc05ec36ef44 ; CHARGE = 0; SPIN = 1
C 0.456842393768491 0.6748474438709798 1.7950655761294345
O 0.2778538060021044 1.429233431250997 2.640964544364344
I -1.1702088471985859 -4.441512681070865 1.5082634865045454
C -0.591157351673188 2.273793949503953 -0.9615242701080728
H 0.0736724580055736 2.245941816269806 -1.8249965394325038
H -0.10786105911628312 2.880690375239987 -0.1961703210008096
H -1.5444217829233489 2.7225577243042864 -1.2449997658284997
H 1.8792217802734514 -3.4373908816919134 1.566137081113639
Rh 0.6394010303639324 -0.33959137395011 0.2314859275489636
I 2.586266068141244 -2.0601308117351227 1.1835042992309843
I -1.7871998085464522 -1.9745306949120103 0.5034714993965742
O -1.9475984892993286 0.4205725323653949 -0.43202583388851024
C -0.8013452446592785 0.876698651779091 -0.4464575626739628
O 1.0777654308937037 -0.641191319867802 -2.731932113745457
C 0.9587696159679653 -0.6299881613566529 -1.5907860076106781
