12
## STRUCTURE-ID: 645bbaf5f49d5971766df394 ; CHARGE = 0; SPIN = 1
C -1.271160043658692 0.908018483098339 0.5394826928269714
H -0.8789642073979445 1.7950089394079258 1.0448615232645402
H -1.9347028597781422 0.3829559707370388 1.2297081278543172
H -1.878171570085682 1.2283608077087322 -0.3145297221131731
O 1.4936197575100258 1.4733372867234327 -0.06685528004153651
Rh 0.3185937636178173 -0.22235857275427365 -0.24010756242248452
I -1.3787646939014258 -1.9782824035875304 -1.2562646636285146
I 0.9495968300753049 1.8667943466053547 -1.8617684714197473
O 0.24174744205850549 -1.2804522265607527 2.5337270690825338
C 0.2869193799044608 -0.8893311264014979 1.4711880792640863
O 2.3160610852099435 -1.9746274749781512 -1.8904696305111883
C 1.7352251164458532 -1.3094240299986002 -1.1889721621557425
