15
## STRUCTURE-ID: 645be8e5a3fcc95f82014f03 ; CHARGE = -1; SPIN = 1
C -1.5767502044096058 -0.647970547348968 1.012558269196486
O -2.3852062335666373 -0.589376729896214 1.822075420227048
I -1.543860710024868 -1.2598512564115818 -2.3235203069879047
C 0.09718150854548961 1.890122144741964 -1.4712129498906301
H -0.907746767107556 2.0093849544769022 -1.8834496873194928
H 0.6858809090862502 1.3113825612550976 -2.1810601671873187
H 0.5385348176297797 2.876341771069899 -1.3309297181035857
O 0.9237232908764402 -2.1541020473721195 2.081103833853577
Rh -0.11676078546669082 -0.7881979843979334 -0.10564610265513305
I 2.3015092538318416 -1.1399555624259026 -1.0690585585247383
I 0.08553938735994439 -3.6846566247985932 0.7084997716549167
O 1.2753067273301035 0.014885301644617719 2.288374703796992
C 0.8421464904086686 -0.9374505482960155 1.6710647328691433
O -0.17475971552473543 1.852367203636496 0.9030878438778898
C -0.04473796896844482 1.2470773641223403 -0.12188708480724883
