15
## STRUCTURE-ID: 645bd08c1e851b56110fad14 ; CHARGE = -1; SPIN = 1
C -0.6259129823649864 -0.34010738075966557 0.7132074864560276
O -1.5330706798974194 -0.6163045792217958 -0.301184545427949
I 3.9693830090698783 -0.41506630438901954 1.1194755806577803
O -0.5078768393895555 2.057936815375275 0.3572743465923947
C -1.5652557482092468 0.1950793748646513 -1.398079307537581
H -1.9036029434881305 1.2105218993805142 -1.1949209562843435
H -2.1737656522982447 -0.3029698052475029 -2.149695382508363
H 0.054170149837112685 2.8168647573120156 0.5939197120606413
Rh 1.3925757629278572 -0.5662112699737434 0.6512068510758793
I 0.4246873593912402 0.5123382065231044 -2.350886479950548
I -1.1901937064508699 -1.4877871848971553 2.4519652441270963
O 1.503366744342784 -3.0137148088808416 -1.0290255825387287
C 1.4734862997259695 -2.045230594363707 -0.39714467076921517
O 0.7934724707796271 1.040877153584856 1.9057495094821006
C -0.11146324397589856 0.953773720692924 1.0281381945646815
