18
## STRUCTURE-ID: 645be4d7916b2a1f710fad2b ; CHARGE = -1; SPIN = 3
C -0.9748367028664224 0.052387258965372795 -1.4059744968725452
O -1.6003263768020217 -0.6238760945767484 -2.1200283168793566
I 2.519508175538976 -0.014169341615002013 -2.712309796302548
C 0.6919456949158007 -2.439681843487732 -0.8491962831735452
H -0.19083059172433878 -2.889371034895485 -0.3921455346692508
H 1.5880844308868254 -2.901204602270734 -0.4220700655238344
H 0.6553834801117459 -2.6501654865779525 -1.9230726009795798
O -1.0740265877281863 -0.8238706765665508 1.398985337571756
C -0.5098111001339213 2.721202593050223 1.3107895998305514
H -1.2086584370940598 1.9363884726778484 1.0409804304718788
H -0.7380598524048052 3.6375508043522564 0.7786391654640497
H -0.4644900931472886 2.8771733529164036 2.381888754707491
H -1.2637220765175652 -1.0971198472777353 2.322292271179537
Rh 0.8740548409984857 -0.3211369015727627 -0.6513469498927127
I 1.4510016049225836 2.0669741999992928 0.6501062908242484
I -1.0261181961081933 2.6273900827397165 -2.460461188070046
O 1.0460634182072455 -1.2539685870689943 1.9406066344815707
C 0.22483836894513506 -0.9045023487914126 1.1123167478323532
