15
## STRUCTURE-ID: 645be8eae86b560f0d47e4f3 ; CHARGE = -1; SPIN = 1
C -1.5823703836912362 -0.6485862600881122 1.0037855968680551
O -2.3909801031076334 -0.5933345202552961 1.8133823631193244
I -1.55091793477832 -1.2227119796165586 -2.3390918134186713
C 0.1124361668854379 1.9059248417407912 -1.449508735163804
H -0.8912634797431208 2.0400951264347205 -1.8601387456982097
H 0.695439488468246 1.3299420148044445 -2.1662404672510407
H 0.5634724791973529 2.8860127588649203 -1.297500792899903
O 0.9065460868736344 -2.1837885198132176 2.0574039508823128
Rh -0.12245700378021535 -0.786275343080928 -0.11483921244950995
I 2.2941321546576594 -1.1435162546974467 -1.0803116528961219
I 0.05942241482405686 -3.6932368230337165 0.6670151005775949
O 1.2727532087622013 -0.01973528610122582 2.289284996037608
C 0.8337039308170315 -0.9620994101173684 1.6609174171319399
O -0.16369771751135787 1.8428805170089189 0.9237318874097504
C -0.03621930787374198 1.2484291379500732 -0.1078898922493125
