15
## STRUCTURE-ID: 645be31cc7e97c47597e8a90 ; CHARGE = -1; SPIN = 1
C -2.427870105986366 0.3357346390103289 0.09465291478124636
O -3.563432255673414 0.5168640754746976 0.12203836789188248
I -1.1093190301993974 2.3065596821117604 1.2714185982986315
C 1.6487260035539868 1.250654261137335 -0.9962931692157369
H 2.518293831433243 1.8237598654833496 -0.669603171366356
H 0.875311895659476 1.9341687808438441 -1.3521957406838017
H 1.9190608881701918 0.6025430994163278 -1.832676460276156
O -1.4538789128769767 -2.9119880592650484 2.6968864233272294
Rh -0.6957612615360937 -0.48317555050853606 -0.08031673884130426
I -1.0559458811262667 -0.3665076684770862 -2.694378362736617
I -1.271406800938875 -1.06469775724204 2.4881267219488152
O 1.1593781328451411 -2.8138821704986725 -0.21530050278655233
C 0.5526876916300785 -1.841358926200859 -0.19156247658312
O 1.708872431231228 0.26920455826407136 1.2052573587362976
C 1.1952833738140087 0.44212117045053567 0.15394623750553554
