15
## STRUCTURE-ID: 645be2ad7228f85e3c602460 ; CHARGE = -1; SPIN = 1
C -3.069723010703021 -0.12507626978824496 0.12092016882937914
O -3.719078823648857 -1.0785406770876886 0.1579474386871268
I -0.44079792178677707 2.269985446627949 0.9441937472680836
C 2.0803783546503385 1.4538965182052066 -0.9273222638158437
H 2.718230193113895 2.24403610964339 -0.5136222992772824
H 1.3691817674937645 1.9224294241545417 -1.6048419073510642
H 2.696437468443928 0.7336931053702207 -1.472746728207588
O -1.1248732764714608 -2.5887208293606796 2.8197116443904724
Rh -0.9433811994463707 -0.1926967905027588 -0.028527129997144473
I -0.9090789007410037 0.3121046574723752 -2.610607616724801
I -0.889379061828101 -0.7620604771647493 2.5528020063490824
O -0.47749542151990165 -3.1038910455300197 -0.41729620664500705
C -0.6464428791640773 -1.9673636796827212 -0.3191630482400321
O 1.8627111246241772 0.09622168489754525 1.0860312766876845
C 1.4933115869834555 0.7859828227456466 0.21252091804694898
