20
## STRUCTURE-ID: 645bd94a8ad1636d592fb1fa ; CHARGE = -1; SPIN = 1
C -1.1581145129194108 1.7530199747938853 0.07822013529935039
O -2.1871408907223544 1.9038308264495178 0.6054758052073017
I 0.10517295316021581 0.6146262628286914 -2.9374192048332155
C -1.0596848253050033 -1.1737960217307675 -2.489016491817102
H -1.9692236423405993 -0.8542579045551221 -1.9933237076685033
H -0.44803133793883826 -1.8008490596675657 -1.8454352079860248
H -1.271258441796763 -1.6596996518867029 -3.4340567199232788
O 1.0994008494764635 -2.5939557501469515 -0.4321683911913669
C -0.5860549891775595 -1.4499617327589513 1.4242530089071
H -0.8042463588460415 -2.4008249573474063 0.9557594438042596
H -1.2905914225575195 -0.6762517632666648 1.1438689359096126
H -0.5128863903234578 -1.5263735095966424 2.5016079010007144
H 1.9315848005298468 -2.962840353270251 -0.7447195202843447
Rh 0.5543387792459559 1.66696460117931 -0.5171698222952174
I 3.0757509255548854 2.2799611914535682 -0.9836030088872245
I 1.3433416484710627 -0.8678368734247288 0.7493344811236772
O 1.2252110490060613 0.6672335749872952 2.129027791380828
C 0.8426085527542068 1.8533539121026255 1.5645251583074737
O 0.4225627740847974 4.19676092381761 2.2196649485022837
C 0.6872604796440849 3.030896310039261 2.0051744654436394
