15
## STRUCTURE-ID: 645bd7d36d9438182032ebb3 ; CHARGE = 0; SPIN = 1
C -2.6763553677151637 0.6835632023213419 0.343776188131965
O -3.677506265597074 1.223243101930647 0.4788334478494242
I -1.4250173560956871 -1.5322410644023732 -2.2359316807554253
C 2.175911735872503 -0.332708242553697 0.5016851099655424
H 2.233577051593379 -1.4222392812364415 0.4853191242089852
H 1.958867153224957 -0.007933684762487268 1.5171527236502957
H 3.1381150771134614 0.059503690885938564 0.17198248891983803
H -1.22690763897923 -3.2935774448655164 1.1271051160716865
Rh -0.8330621770986419 0.28280425577095764 0.01441295760159018
I -0.7738256112048106 -1.9867614391114559 1.8984215687356258
I -1.581436659258614 0.9981053265674669 -3.137074838662347
O 1.3724064891385335 0.23990759735250147 -1.6582098983962965
C 1.1059748087031054 0.09080250302828512 -0.4769012588951669
O 0.3393012656770398 3.01573745209827 0.5672410154302538
C -0.13004250537393836 1.9817940269764827 0.4021879361442462
