12
## STRUCTURE-ID: 645bd6d3fd2ecf3d8c3adfc4 ; CHARGE = -1; SPIN = 1
C -2.219233473107039 0.5571599181244495 0.01162785194190564
O -3.2788060914872377 0.7490680236867651 0.3949086475099208
I -0.2242898663525352 0.1299722240430746 2.5683714476290995
O 0.04590738530904946 -3.7715678426990102 0.17558251532041233
H 0.639826295852223 -4.459563890278404 -0.14607555420172028
Rh -0.27487184527530967 0.5104268173358916 -0.08717263825793632
I 0.03476061751139886 0.5596749491521014 -2.7647738221519
I 0.13586968775535863 -2.166906390040669 -1.0185763588902028
O 2.7381112802127965 1.0591474071458182 0.266890657298401
C 1.5379041052389515 1.169217836537638 0.13877453610060608
O 0.27550174630347085 3.403796053061564 0.27101739503166705
C 0.589320158038754 2.259574893930732 0.1894253226695402
