20
## STRUCTURE-ID: 645be6250e56fd3b0f7e8a9b ; CHARGE = -1; SPIN = 1
C 0.20914954482645845 -0.7696131063168543 2.359980528651014
O 0.998743331528372 -1.2353231644546285 3.068160804367883
I -2.799914715618222 -1.6705109644773142 2.3402411302089283
C 3.154649637123106 0.6991388156952444 -1.1165963049560257
H 3.8210293288163006 -0.14995293235635423 -1.2284065490814273
H 3.682640980638112 1.5770271944346748 -0.7556341536758109
H 2.7159502297791778 0.9343352805324201 -2.086456399650341
O 0.1313439901602986 2.6345597060323556 1.5842439471572989
C -3.099817163190312 -1.9184175262925796 -1.6912910246764055
H -3.2378435020645893 -2.7285796870799457 -2.3942255834232724
H -3.4998331964761706 -0.9858029196955734 -2.070912422400594
H -3.5392018039594917 -2.156338895001967 -0.7289954978763337
H 0.8583577594113556 3.2609181447595956 1.374131236823948
Rh -1.0309019649046023 0.08222539732759578 1.32937471889606
I -2.8610717653669426 1.5939221229366243 0.1412000398606521
I -0.9780753417831068 -1.652621898907632 -1.394249307440689
O 1.4678107449679905 1.4590966099850036 0.3345976435782611
C 0.28150105548108556 1.4573042543070085 1.0283477131917895
O 1.6794207469187785 -0.7716478442980693 0.09663293005258672
C 2.0460621037126057 0.3402814128703248 -0.19014344960774507
