21
## STRUCTURE-ID: 645be893d2c9d661180abcfd ; CHARGE = 0; SPIN = 1
C -2.8444025992825734 -0.9989833008448122 1.349943358542993
O -3.8509810564226843 -1.3353824930229168 1.7567413862798242
H -0.5219776876524878 -3.92624715520209 2.2684975603447244
I -0.04540977414523209 -2.5875992199602136 2.958764604307799
C 1.808639177680322 -1.5471744007076094 -0.326890311045255
H 1.636810593530563 -2.4074153508045946 0.32179057870313643
H 1.519498133826575 -1.8096408432595121 -1.3417777517068525
H 2.8740277971091404 -1.3180953103211333 -0.27904970032790233
O -0.17842508150390823 2.1544270454057393 -3.226898199540233
C 0.5447147792153351 2.5725942833232622 -0.7034861343452724
H 1.2054643806599994 3.051189404725838 -1.4127691040746275
H 1.0448173142959702 2.3447241312939084 0.22977846558246304
H -0.3380958081652751 3.1800712837305602 -0.5510401816289084
H -0.4619338853071439 1.7526371800829752 -4.048772894934749
Rh -1.2124257720992033 -0.48956231092307023 0.5899444445308336
I -1.4581499132120943 -2.442910904495632 -1.111782474211767
I -0.07078902374952871 0.7623999281121038 -1.5986940000396361
O -1.0581583563310095 1.9894409359051521 2.2608151913057664
C -1.1239545518845657 1.0306698546287698 1.645977664417821
O 1.4658748535041466 0.37597249661111404 1.0526418940792697
C 1.0648564799336373 -0.3511152542778366 0.16626560376052557
