17
## STRUCTURE-ID: 645bc28b36cc2818a036ef50 ; CHARGE = -1; SPIN = 1
C -0.5514492077846787 1.47829118702738 2.0290397140392353
O -0.9546750822180623 1.7530557044865878 3.0759016514711788
Rh 0.26124595504548287 1.327445846695687 0.36195723545021286
I 1.4311855424783289 -1.5638246649897558 1.7113147969319142
I -2.0323266020184314 1.3653900407899724 -0.9229423274243713
O 3.0984625502571297 1.890000688035816 1.1375954188208808
C 1.9866828460292194 1.6594694481948737 0.922947245667748
O 1.5106621506415063 2.5359538903545507 -1.968940340947563
C 1.2204224492701228 1.4942364885239343 -1.3775198420300907
H -1.3491985041220662 -2.2740852131639997 -2.061154348618337
I -0.2499918586745589 -1.9107981603995925 -0.894519490625033
O 1.6435858226162525 0.32289067312650227 -1.9559932196013587
C -1.8490715575497427 -2.124095520314164 0.520452994694771
H -1.7207658285756553 -3.070818172923014 1.0338934729287013
H -2.778304507622431 -2.0719762893543496 -0.03556655402709582
H -1.7771126105302895 -1.2981444329861869 1.2225251695095247
H 2.1106484427578827 0.4870084868957132 -2.7989915762403483
