20
## STRUCTURE-ID: 645bdcdbf5bed55fe12b1b6a ; CHARGE = -1; SPIN = 1
C -1.8609410971977456 0.7192476995431957 -0.023759057452613624
O -2.643263061318997 0.9108040545859658 -0.8724884170950431
I 1.7603064814788276 1.628296155702265 0.5038573410453778
C -0.14315783291339665 0.32663419815106937 3.4729454711535936
H 0.9264172544207272 0.09700770265762014 3.4341336964464126
H -0.521456660143092 0.10244180268151261 4.470656139116201
H -0.2324177937545703 1.402010412443462 3.2886421427231123
O 1.413418486721109 0.4816526619082413 -4.199091431071615
C -0.4343493677380912 -0.7123425539564257 -2.831769945383142
H -0.8795015575243322 -0.0959841587385666 -3.605370946133819
H -1.1998432204073342 -1.1432695610796877 -2.1877757884748874
H 0.1718502982015914 -1.4894811024715937 -3.2864168462632177
H 2.1481602795961616 0.9818008595977411 -4.557078706394679
Rh -0.2997024531898401 -0.16685528101820116 0.5645862898494921
I 2.888849727257858 2.906847946582854 2.664893108241948
I 0.8439632196240094 0.4887886801649941 -1.8087383348571373
O 0.4767938127759353 -2.8223725569593134 -0.4767559629290609
C 0.3308303410124577 -1.9188621831351391 0.2539141570234912
O -1.8257019971942394 -1.226011575720557 2.717608880664535
C -0.9202548597070693 -0.4703532009394353 2.478008209791052
