15
## STRUCTURE-ID: 645bc48f84b80b4890315fb3 ; CHARGE = -1; SPIN = 3
C -1.6854337088539462 -1.022077207552258 -0.004822795870927013
O -2.548516132547216 -1.7991009862092926 0.032343141829950385
I -0.4307061995000725 0.4301983733791256 -2.8685567274527664
O 0.3680720610765303 -0.5247385361138259 2.3339057420239073
C -0.5746241105923807 3.599749249830559 -0.595367143203805
H -0.35414991295353226 4.613743664120083 -0.3319726579536616
H -0.6551355419012951 3.265707986561221 -1.611379534870458
H 0.6149489242775371 -0.8739681270613644 3.215996885987337
Rh 0.14809241267957474 -0.6372315423031617 -0.439618752955703
I 2.8282080560524 0.21196178257876647 -0.3420615554703512
I -0.2926217299705827 2.1709995104849096 0.8681960226679556
O 0.9234776850395893 -2.5437441645971712 1.5740441400816736
C 0.5571503767434802 -1.408528566728838 1.3484636754060055
O 0.5094610570383039 -3.247973512480247 -1.8584583503589711
C 0.5917767634116085 -2.2349979239084803 -1.3207120898602027
