20
## STRUCTURE-ID: 645bc4008c17cf55ba554ef0 ; CHARGE = -1; SPIN = 1
C -2.3431642815603833 -2.4170321050816144 0.4337916359089185
O -3.2600940653332 -3.058137194189134 0.7227584682296535
I -1.2237797545484155 -2.906767570422492 -2.592490891948217
C -1.6981207498123034 -0.045120402333529985 2.400117018399692
H -2.7473950981770257 0.03611892924170298 2.1207285942939755
H -1.563437402044624 -0.9821035760981983 2.941990004145822
H -1.4089900154458546 0.7880248781392024 3.041464800760169
O 3.838018710035552 0.813737395029563 -1.385091753233296
C 1.5429899732866394 2.2610902277522005 -1.062926241284883
H 2.4949219734917523 2.7691949328520096 -0.9853658858512132
H 0.8448231444388038 2.583353886980924 -0.30155257669071406
H 1.1223877397874171 2.3535977705446363 -2.0564998850863
H 4.44374563231994 0.06479286559463197 -1.4246282675122521
Rh -1.0016187755616093 -1.3758201179456724 -0.32718882753801176
I 1.27902696427998 -2.7289772866455873 0.7040422375148634
I 1.9858492306398614 0.22846256832996 -0.6910528078785576
O -0.8445476588624248 0.8902366332855541 -2.3241601810642125
C -0.7588359515585972 0.06692485557745817 -1.5052829074522296
O 0.11822620664237948 0.7318352221186677 1.1239683141837442
C -0.8200058220177794 -0.07341191273030151 1.1673791521030417
