15
## STRUCTURE-ID: 645bdfbb3b1a88531a6ee1ca ; CHARGE = 0; SPIN = 1
C -1.6246614613118788 -0.5138812887492561 1.327920363491491
O -2.602748973281962 -0.43857081850566615 1.9148782740558472
I 1.049316865687232 -0.1882334042825471 2.985757109130348
C -0.20663196046311263 2.117195263260583 -1.5555874756003991
H -0.08838663024356203 1.6293827299244021 -2.5266246797013494
H 0.770489793129261 2.5426242255091083 -1.316406303898746
H -0.9695482800935725 2.890110872514667 -1.6079880812900937
H 3.1764617531645083 -2.744217739043169 1.6923442677909797
Rh -0.0251199399116948 -1.4146545979220315 0.9184761256984746
I 1.9906327886248234 -3.251999269230938 0.7641264045279162
I -1.3728627903480277 -2.756619425086608 -0.91872696928211
O -1.579310693333534 1.085913836711483 0.11256424901431882
C -0.5600670657148208 1.1090099224176817 -0.550947700546387
O 1.5500156624998265 -0.06420077635383897 -0.8878246055706774
C 0.49242093159647965 -0.0018595311638288055 -0.3519609778196348
