13
## STRUCTURE-ID: 645bb58e71ab8f205232eba4 ; CHARGE = 0; SPIN = 1
I -1.848893988645718 -0.6846235532991282 -0.1170394370937326
C -2.341330507260129 1.0916858943606893 -1.2492486118040467
H -2.4607674565361166 1.9079344032565333 -0.5473989457538784
H -1.5242170875407512 1.284673454487095 -1.934185714350816
H -3.261487092143684 0.8876224903016257 -1.7812868155438375
H 0.36724960546891655 0.849424823173214 3.59836055015125
Rh 1.3126863074264727 -0.3703408114477301 0.35386829058709235
I 0.8492670321844893 1.4984672442540743 2.229418357582166
I 1.5621727035367081 1.5572457257598862 -1.434778681457105
O 2.3492362873932633 -2.0768666066855266 -1.86449201782696
C 1.9540605547066725 -1.4531078967072066 -0.9921424387887727
O 1.5924883534404963 -2.7070507974609965 2.200845481289633
C 1.4495352879693648 -1.7850643699925357 1.5380799830090148
