18
## STRUCTURE-ID: 645bb38dbfde853b096ee1cd ; CHARGE = -1; SPIN = 1
I -3.713493663985269 -0.2854662089537847 -1.7290699747780516
C -2.4012205078611872 -0.6141441353506907 0.0061791900969219455
H -2.7711078664190745 -1.5458473351444546 0.44470397840860243
H -2.6591033136233846 0.20037442709686182 0.6915980837518831
H -0.8499944937880246 -2.0249532385499314 -1.1582738972669255
O 1.9716214383243804 0.264414073045249 -0.5303714500664705
C 1.0213280137647773 1.3100195248730597 2.6528915229970806
H 0.22529111046944908 1.8334616142314792 3.167064135478341
H 1.221554269633094 1.7710693239140463 1.693102975057606
H 1.914915764251971 1.2473995375235314 3.2601819283204154
H 2.924262680595612 0.07873935557541871 -0.40179130295963394
Rh -0.6486718461726295 -0.49370856104593547 -1.0786142409402892
I -0.6624863705224258 2.163552712312312 -0.8029593529777049
I 0.34004147070104096 -0.7187302287682806 2.279243145679128
O 1.8812138611939009 -1.8731651194432393 -1.1429432005412818
C 1.307738450368204 -0.8169481625607858 -0.9663043727007217
O 0.6576515265214472 -0.19484606079790648 -3.7307749512453596
C 0.2404594765480799 -0.3012215179569322 -2.6538622163135055
