15
## STRUCTURE-ID: 645bc79e648ece6ee87e8a90 ; CHARGE = -1; SPIN = 1
C -2.8792343124668336 -0.1656664741707986 0.6755996173060175
O -3.6380263236399464 -0.22972370524794708 1.543608172760168
I 0.2492147908720176 1.7909030191630413 1.2359256634251148
O 0.22043501409661834 0.6144186322331132 -2.0992311739443292
C 2.9449966317411773 0.7157791685587226 0.5305259995615135
H 3.3530273375117043 0.7329911086933462 1.5229467796966556
H 3.2166764991025913 1.4645946884803656 -0.1886067005966573
H 0.18875565677883152 1.0762434113625141 -2.9609826563824195
Rh -0.9667210881220962 -0.3995066062263951 0.2519179890438818
I 2.253406499220753 -1.0620166460402696 -0.18171901952834668
I -1.0662563926818105 -2.686603080988966 -1.2567130587596302
O -0.27887132385881075 -2.1101063585559263 2.6524092942311897
C -0.6619305985951516 -1.4203823436026688 1.8151155764929758
O -1.9438673667231774 1.1073022094102942 -2.04367268502037
C -0.9916050232358644 0.5717729769315836 -1.497123798285749
