9
## STRUCTURE-ID: 645bbdb0e9af9a54c07e8a9b ; CHARGE = -1; SPIN = 1
C -2.153298497914156 0.3526532477081464 -1.97262021725138
O -3.175837051525603 -0.11352614398387081 -2.1274433506787407
Rh -0.4111830723018094 1.0447535165080584 -1.850195174090728
I 3.6349608275082175 -9.262204007164907 13.553596104958821
I 0.14359804819760358 -0.31915633019503536 -3.9541929513961858
O -1.060240071385266 2.6822834098936554 0.5754479176490764
C -0.8136646486193295 2.0554303765763584 -0.341851474249773
O 2.4625817244186115 1.9285695044369502 -1.9948696241571893
C 1.3730827416217226 1.631196426220636 -1.8878712307838934
