20
## STRUCTURE-ID: 645bcb35313c8a5209108f04 ; CHARGE = -1; SPIN = 1
C -2.1683432692580524 -1.8094059473554691 -0.026244212286037443
O -3.0232820317090607 -2.438822690738986 0.42356950412460365
I 0.10559841571814281 -0.9998916955724353 -2.622153071404253
C 2.5668943833760944 -0.08802518153737661 -0.24018464393695044
H 2.820750321330744 -1.0367929352709886 -0.7114554882797373
H 2.3469287597196717 0.6272792904666907 -1.0317599637343466
H 3.4062881113172843 0.26538944598913317 0.35766275985912355
O -1.5678326028330885 0.21913740427627384 2.3318095620512618
C -0.7730558772554162 2.5567844378245037 -2.110278157429912
H -1.2110056763896737 1.9178922143081547 -2.869963893339066
H 0.3014528981239163 2.6223511512927336 -2.241016921518473
H -1.2320467108318458 3.5395269520121753 -2.0988029581014285
H -1.7880692902771431 0.24604666897178332 3.2852219831544414
Rh -0.43021132315864385 -0.9691252769166542 0.04443768410621625
I -1.16812303648893 1.6598478444080076 -0.14864038799364918
I 0.7422867330445623 -3.3902565673777643 0.36342605248197807
O 1.436808269121171 0.06411829962414811 1.8376382842561152
C 1.3633739777998741 -0.25766349817954654 0.6630082857056251
O -0.7892104866842106 -1.8024025995092352 2.80910800606462
C -0.9392015646651624 -0.9259873167151972 1.9846175762201237
