15
## STRUCTURE-ID: 645be930681fd150a56df3a6 ; CHARGE = -1; SPIN = 1
C -1.4367123489047573 -0.40883962204222796 1.0917750109729711
O -2.300549156347009 -0.21008372837876305 1.8306927457197073
I -1.1991415766513942 -1.819165912888106 -2.423280007796636
C -0.16781778083903295 1.735635627946687 -1.5272890870400615
H -1.2105306910156521 1.5019404284352325 -1.7436691479518152
H 0.451252182429387 1.2363029304269801 -2.272427424222616
H -0.01286239371509093 2.8119742835840524 -1.583559711893047
O 0.8727572145574918 -2.1200760743402722 2.2859053626256225
Rh 0.13559224267332357 -0.7159552166426466 0.16981077814676468
I 2.548739294322015 -0.9162861298722628 -0.7945684116727404
I -0.5200410895666736 -3.554623424608539 -0.4799260386443033
O 1.2617529017093894 0.0827382852215544 2.6804088328749964
C 0.9322440600674596 -0.925485356553425 2.1369029196568046
O 0.46671191932526335 2.0329697670222457 0.7583717409991766
C 0.17860522195526904 1.268954142689471 -0.12914756177481013
