21
## STRUCTURE-ID: 645bedfe403a394e24014f03 ; CHARGE = 0; SPIN = 1
C -2.513221579609995 -0.4067785844390416 1.0004639796308592
O -3.348029444737361 -0.3539207648783363 0.199198005488111
H 1.1996419923214339 -0.17606870992333062 3.7627638970499624
I 0.45155672369233696 0.6535781233373312 2.4527980675431587
C 2.794864231369844 -1.600375723536164 1.2726574877819992
H 3.105361203545698 -0.6744925967156618 1.785905793307143
H 2.1978738800283675 -2.166887163625452 2.0009681086433804
H 3.689143710619023 -2.1923625096106654 1.0177338395603344
O -0.8315584844290749 3.8909143885014155 -1.021223604856834
C -1.700379658407191 1.5660222265925052 -2.020388034596659
H -2.499534516388343 0.847279206996968 -1.8638229091379845
H -1.055018291754889 1.2454357057133978 -2.8309385795827002
H -2.1063851885661427 2.543751216792213 -2.229952448936668
H -0.35590168118768756 4.541353795101868 -0.506881367887077
Rh -0.4595006063151379 -0.8135189928682688 0.45114535973751396
I -0.4184958150348384 -3.2715223486876854 1.4192970883124638
I -0.5822074232496117 1.754772701416334 -0.2874807222591669
O 2.1943210253943595 -1.1318027909038528 -1.067625294108409
C 2.1583230299402074 -1.300588395698363 0.07083933048145873
O -1.1124081421359018 -1.6186091638612858 -2.341548678406667
C -0.8084449650950885 -1.3361796197039673 -1.2639093177642193
