21
## STRUCTURE-ID: 645be919e532be728a74b450 ; CHARGE = 0; SPIN = 1
C -2.61512253815174 -0.21069355622614966 0.32045393575428704
O -3.655938596155444 0.21030792584035435 0.08864491784442036
H -1.485779879938792 -3.7007949451714968 1.8492277094133343
I -1.1524590149885114 -2.40079589692856 2.705405523464404
C 2.1131418627625727 -2.2466871069811716 0.7260960962781328
H 2.766603899551975 -1.772796092286325 1.4621680457634725
H 1.3889530927982348 -2.8878519491754244 1.2201925642782707
H 2.7224800294761926 -2.8699314227420825 0.06410860933973588
O -0.42936360053275124 2.5344644914014953 -3.1213970132029125
C -0.7904000920652431 2.912102999918495 -0.4799846760638043
H -1.2502976620398882 3.60693783948633 -1.1678379679401585
H 0.1995007159034858 3.258745281480648 -0.2083907888162762
H -1.4026578505618914 2.7524905254216394 0.40085238347741114
H -0.22097188808006618 2.1084151103793345 -3.951654974042066
Rh -0.7596645613520892 -0.4768982696571611 0.6915814513582719
I -0.32701138126733126 -2.3044543660238266 -1.4087417961575508
I -0.5959181003223215 1.0869686221527939 -1.5181836877302517
O 1.346792384019732 1.3743047349396056 1.7841176266430632
C 0.6123870219728806 0.5593409030691012 1.4280635094003058
O 2.006157461958043 -0.33808170159378154 -0.7737326914482167
C 1.529568697012969 -1.195093127303823 -0.11098877761389786
