20
## STRUCTURE-ID: 645be8227615d03b5b0d4d4d ; CHARGE = -1; SPIN = 1
C -0.7143886579853586 2.812675276777968 0.24378699182656147
O -1.2120139049872154 3.7635388365068776 -0.17774259529347136
I -2.1700995149344844 -2.441449192515479 3.182543348591264
C 2.231538377934568 0.1947342454855296 0.05550262245193517
H 2.1445375544630547 -0.5784444919095271 -0.7218820757660547
H 2.649775181238221 -0.2932296109395049 0.946451232606571
H 3.0107626325998393 0.8964528354395447 -0.30226812184616336
O -1.6433767747267776 -0.9066198388479744 -1.5377251493623192
C -0.007730187236662384 -2.2117778659801486 0.6678114792598111
H 0.3608817591694036 -1.9281427253901156 -0.31078674825134417
H -0.8225744029748316 -2.925645443157016 0.5884488287757176
H 0.7921266620226373 -2.6057952354705605 1.287793207084035
H -2.572549109146562 -1.2195361073367588 -1.5660107402547752
Rh 0.5830660969652756 1.4350668066968737 0.34478364017899005
I 1.796363587341216 2.6000027708783473 2.423457934779035
I -0.7402124673266381 -0.39652364743603835 1.5910412831922895
O -2.5018337307466605 1.1596700782000706 -1.436277387489142
C -1.5458606859157342 0.4104937669909168 -1.4909829232529286
O 0.4933493731800194 1.2976375980020938 -2.387843748343663
C -0.13176178893339893 0.9368919440048924 -1.4001010788863144
