13
## STRUCTURE-ID: 645bb8989474fc6a740203b4 ; CHARGE = -1; SPIN = 1
I -1.3770118207667401 -2.7039981477563293 -1.0386483988495214
C -1.2966814350846125 0.6459745755782409 0.14846740049427548
H -1.5919271185985457 0.5462075998260385 -0.9005039303715525
H -1.4525170773238405 1.6749073424139103 0.4843156121334116
H -1.8483341183313313 -0.045242286051176306 0.7931662364386147
O 1.2312423550687213 2.1958400198796073 -0.07701761293571238
Rh 0.7245521948995958 0.2656079679376292 0.27571756776038236
I 0.8983886769814157 0.8682497659258561 2.772391572608761
I 0.9865859247514971 3.0137076366686224 -1.842886601822644
O 0.7643851209432677 -0.7049494903429978 -1.6197034824343515
C 0.4744269857055674 -1.6031529939219014 -0.7875065856284333
O 1.491469128745439 -2.4637383556368544 1.280900826712872
C 0.9954211830095497 -1.6894136345206399 0.5113073958938942
