15
## STRUCTURE-ID: 645be506cbe3126106602460 ; CHARGE = -1; SPIN = 1
C -3.0970685232771538 -0.4264305685754822 -0.2047110323594592
O -4.228566308391741 -0.5328922183180312 -0.11058066534186688
I -0.06723590651911228 -2.534287882367014 0.6902425051279352
C 1.8843953212670665 -0.08668293477552692 1.3300604294001626
H 1.2040394943323955 0.08205126536869624 2.162260074671241
H 2.4633028470541674 0.8165013621251666 1.1322094409304655
H 2.565027015671719 -0.8979908480350085 1.5999400547321825
O 0.9522292256079928 2.3284681738111486 -2.111967823988524
Rh -1.2263302485609957 -0.06667158281691292 -0.18935235880790915
I -1.6426997969929982 0.8622530321686842 2.244111699849384
I 0.0848434013583228 2.2782185670063226 -0.47016200379291134
O -0.7661467379132035 -0.401682094343756 -3.1177315817934796
C -0.9857413132076732 -0.33273535747031663 -1.9972877689931272
O 1.6490241006904416 -0.5941794252164773 -1.03224677259715
C 1.2109274288807625 -0.4939394885614845 0.0752158029630554
