21
## STRUCTURE-ID: 645be8d5438cf63efd24641d ; CHARGE = 0; SPIN = 1
C -2.1249272381048647 0.3317361327594812 1.8220470493134744
O -2.935288431973786 1.1351007866878822 1.9053772608392312
H -0.3893182051033698 -3.7211253241071915 -0.2339738043621476
I -1.2672081352133864 -2.775159001273246 0.7055894841546382
C 2.3197423242419437 -1.6294228783909277 1.2612648882285764
H 1.8455116030361696 -2.015145211295119 2.164213333336799
H 2.5881140250137853 -2.4521254506489614 0.598167214525001
H 3.242177611638242 -1.1090024249109205 1.5226171900421819
O -1.4574453693624982 1.2208320847622012 -3.198074665349725
C -0.4326819303702967 2.2856183406211765 -0.9538944885416968
H 0.6430935905120151 2.260407638600159 -0.8316447491949672
H -0.9173760342542491 2.605552498691773 -0.038167957874386406
H -0.7042129202056641 2.936799468171229 -1.773131385806212
H -1.7069610916634022 0.5908588237045221 -3.8850802213589533
Rh -0.4054192621454401 -0.33830830462863437 1.245762726464023
I -2.1953206227731767 -2.013780369226328 -2.9170672118871934
I -1.0830763342458065 0.34915304587983476 -1.4474914331082809
O 1.1703844068418492 2.025214698216612 2.2172462814770597
C 0.5595270187408389 1.1211737797502175 1.866826094902175
O 1.814036051621251 -0.1384387588166828 -0.5291467405578397
C 1.436648943769851 -0.6699395745470778 0.4985611347582574
