15
## STRUCTURE-ID: 645bc44711a01c24cb6006a0 ; CHARGE = -1; SPIN = 3
C -1.5763552453096628 0.1187878535906569 0.5695761620547262
O -2.5030249173495673 -0.1764069797752739 1.2019451007590516
I -0.43266684185079923 3.125962811059538 1.3287142349847938
O 1.6663237283220733 -2.094490460585453 0.7029095231494387
C -1.3997304730441846 0.30632329039306966 -2.9406646403937367
H -1.6908185652663348 0.45895533151621465 -3.9599971403304246
H -1.600649369772078 -0.6080086630954087 -2.417240891490792
H 2.214466824183363 -1.687789638013594 1.395942589355014
Rh 0.33744630073700094 0.5484512398641729 0.6958862330664026
I 3.0459159048067717 1.1390848363733124 0.3843574176397346
I 0.21556283181286262 1.384510734550753 -2.2723025331223266
O 0.2851334784427489 -1.6758587560248666 -0.9536298102302971
C 0.8179945416637295 -1.2862954873538335 0.0603805762871674
O 0.17747383048828597 0.2346845334537158 3.661442671563804
C 0.4429279721357789 0.2120893540470088 2.5426805067074603
