20
## STRUCTURE-ID: 645bc35d335af4124d0fad1d ; CHARGE = -1; SPIN = 1
C -1.8321798046383455 -2.8892038315051853 -0.9081605370336
O -1.9145391966128669 -3.921876018137579 -1.4035580222761885
I -1.0637656331805394 -0.5695238695031664 -3.077697552808827
C -1.3975229816816428 0.6263780161686442 2.724913772340592
H -0.8332662694133279 1.2994471433415873 3.3644181956060337
H -2.4598287612114507 0.8691848713030264 2.7364044441121247
H -1.294363759068203 -0.3994815149309493 3.0799649010339674
O 3.9393227009496328 0.5624176855310885 -1.0348603018035283
C 1.5226835831594077 1.47734302260135 -1.8501720601250817
H 2.3276583016052017 2.14207019214384 -1.572156256176419
H 0.5583230274082168 1.8814957795129907 -1.5688073884207094
H 1.5662308460467314 1.2403462562351062 -2.905470837333937
H 4.584720889994871 0.021941057449234653 -0.5798607827060895
Rh -0.5716643826379838 -1.4131755819371905 -0.6323300659765255
I 0.5135270323765001 -2.55129366918394 1.4772973600542378
I 1.8541611565783553 -0.28289153536713824 -0.7296006646493504
O -2.89284799436553 -0.10423976296055457 0.24675640606369842
C -1.70305837644672 -0.157959857894606 0.3630897853280259
O -0.001401224615278514 1.4426374806692923 0.9443541516382962
C -0.9021891542470422 0.7263841364641336 1.3254754531332607
