20
## STRUCTURE-ID: 645be62a509fb05fca2b1b64 ; CHARGE = -1; SPIN = 1
C -1.743860891610048 0.113103899595757 1.5524774734105955
O -2.718342070149969 0.20471480997420025 2.1479946818045357
I -2.2965151350459916 1.4107149397811503 -1.3748926716658318
C 1.892881772466388 0.9456625033689775 -1.810880904017676
H 2.578673140671332 1.6595442582103739 -2.2677012380165436
H 1.282735092632603 0.4872089469048615 -2.589177754816738
H 2.4574109352403704 0.17380264230486633 -1.2897998562212976
O 0.8466352926064694 -0.5561243496131115 2.600802774783979
C -2.017708126990455 -2.5656137771024308 -0.7567341885535999
H -2.031074130588632 -3.4330410916867087 -1.4077051142586534
H -2.6807593607259523 -1.7875476512141892 -1.1240653809191659
H -2.2450240154928545 -2.8314010065441977 0.27005404429313573
H 1.6026953910318276 -0.8377423640724885 3.156795097372528
Rh -0.28213272536285244 0.7224583411085568 0.39412230989989666
I -0.2826478416809787 2.842878023462678 2.1478597098102297
I 0.0019620334311007833 -1.7526983683358022 -0.795673494866893
O 2.39526767873929 0.40268782231278055 1.3099117013707842
C 1.2305371130984022 0.1697445944193938 1.5507321015688558
O 1.0180994503433671 2.9228294160751256 -0.8723360880175607
C 0.9911663973867051 1.7088184110502098 -0.8417832029607524
