21
## STRUCTURE-ID: 645bec43ba584e5d0a5d491d ; CHARGE = 0; SPIN = 1
C -2.896638520029011 -0.6916586389311202 0.5562690443235994
O -3.7495123900814527 -1.3918893330692503 0.8585405769316279
H -1.068524569027748 3.594560498412845 -1.667145855116456
I -0.532181511701905 3.0185953004662642 -0.28543904416360544
C -1.1144791284149673 0.7576896677870998 2.893507077478805
H -1.862684492993106 1.538283436392371 2.7533090647318863
H -1.6018002582404753 -0.10289870523750123 3.3554273570470525
H -0.32106977966134415 1.1037049182498049 3.5563991244085216
O 3.411298442419813 0.5352950696890798 -2.166436312430871
C 2.3573935956924896 -1.7928616349739832 -1.1401768810431472
H 3.391884875469537 -1.6871116646262754 -1.4354729826639698
H 1.8443772784521881 -2.556828319181993 -1.7110338172105177
H 2.253328796475992 -1.9586776635014813 -0.07471323265680738
H 3.516007777904795 1.4404904373221823 -2.4703515524375916
Rh -1.5851114803417838 0.4317031764777348 -0.10999592097674135
I -2.588608604484711 0.6231208993190902 -2.6179947596717055
I 1.450570910738965 0.06393375478749695 -1.5696174256372526
O 0.621461644400226 -0.07946049396676273 1.4777748173328267
C -0.5212571318133045 0.30383109172450457 1.5936810052291241
O -0.565812314891973 -2.1580087353503608 -0.9086222430860632
C -0.4386431398721704 -0.9918130617897466 -0.8879080403887083
