20
## STRUCTURE-ID: 645bbf732420a93a700fad20 ; CHARGE = -1; SPIN = 1
C -2.710136226691675 0.5610039290313505 -0.21553487240152158
O -3.809847215070039 0.2848691619390709 -0.4105236033154603
I -1.2681901838380512 3.4906921852011337 -0.7889708635762587
C 1.7588167919035673 2.456955442755899 1.256352926517459
H 2.5010297472895555 2.589386708892975 0.46667419870032706
H 0.986377906403479 3.2169413146339987 1.1688939476615683
H 2.246855640794014 2.5664498683338217 2.2277791570351666
O -0.33405545055818503 -3.9835589893843393 0.43118958539627444
C -0.5885730784249132 -2.309139461053933 -1.6919051745990115
H -0.8758636039577116 -3.3493934463647497 -1.730796264727026
H 0.4199077896666992 -2.181399084697577 -2.0687964363065197
H -1.2841367095482494 -1.6762198845627148 -2.234275141596736
H -0.21027584883118744 -4.271333242704073 1.3349593281221614
Rh -0.8637762661771023 0.9074508351988958 -0.1617500413687781
I -0.7002910451988412 0.9946367173602344 2.685822720285791
I -0.6166711280995585 -1.720083057640123 0.34748060283221105
O 1.579456992746374 0.5542984872224471 -1.8638339437981999
C 0.6985568519912345 0.7623432879107513 -1.1405774342506256
O 1.8235629123422346 0.03150059474126785 1.2027228356105273
C 1.247252123258342 1.0745986331856636 1.1850884737786338
