19
## STRUCTURE-ID: 645bbb049505130a462b1b6a ; CHARGE = 0; SPIN = 1
H -3.8314607514109063 0.22734281774676052 -1.3027354493893448
I -3.0882031524338993 1.1115752705763757 -0.22074394848547016
C -1.8956627970667435 -1.998143445641598 1.524092793654573
H -2.3321005304629363 -1.527941749262374 2.4060981607202776
H -2.694831048597127 -2.379440032658637 0.8860640562633105
H -1.2606096081206344 -2.8280838414576053 1.8387128259046905
O 1.6530843806025621 2.223248098771999 -2.8493950000608934
C 2.4074986693521567 1.5935960450838247 -0.3204069046473888
H 2.595850386389078 2.5666443415109192 -0.7492686205349205
H 3.310883283811878 0.9953482487303559 -0.30462948908786625
H 1.9769569009839827 1.6690204217837645 0.6716520146656412
H 1.2973343242091302 2.1762305292246533 -3.7382744872471596
Rh -0.7575346562935252 -0.6451606493069474 0.35183315988100683
I -1.1475317245865229 -1.9728624986393442 -1.8984329206866895
I 1.0156402982688821 0.6296245715310567 -1.595658157354478
O -0.05031326078066011 0.6466835023135463 2.9480354146384324
C -0.3482813222489251 0.1574728781648743 1.9598751493687108
O 2.0579036399477655 -1.611696318950059 0.3570385991868829
C 1.091376968436399 -1.033458189521476 0.03614280321081256
