13
## STRUCTURE-ID: 645bba03ea61fb33c0600694 ; CHARGE = -1; SPIN = 1
I -0.9971934496741234 2.136515944520427 -1.2022609692722102
C -1.137290895190379 -0.7641876731924181 0.7393941124557991
H -1.2448992578874845 -0.46493512613556565 1.7860042673009116
H -0.9389988807677669 -1.8342592129544708 0.6699600023245493
H -2.0341523937162522 -0.5094079156590768 0.17441932818743655
O 0.6968401601119701 1.5528639478353223 1.6244547955580626
Rh 0.5029524986103202 0.3119858939531938 -0.0020522707765860703
I 2.215918503549087 -1.3100650447003506 1.1563855422764178
I -0.6370718181459577 2.4357479618725018 2.7112896431211992
O 2.3692690996142587 0.6792432392295393 -1.9551357557013147
C 1.342024037443312 0.08248687061403846 -1.8708003300435931
O -0.4337677179409945 -1.5577259661581495 -2.1795855415096006
C 0.29637011399399615 -0.7582629192250138 -1.6520728239210505
