21
## STRUCTURE-ID: 645becaec8d75342bd53cd23 ; CHARGE = 0; SPIN = 1
C -1.000762830743037 -0.578356955735138 0.8956322939680028
O -0.8700078747832067 -1.7300784355691763 0.8034895480377994
H -0.5723666092250246 3.548869355859411 1.8711670647751728
I 0.28620279468205995 2.3541368592028764 2.5221257086604685
C -3.1234616989571395 1.4320728009867618 1.3960089875297215
H -2.659907889268324 2.0108283578994794 0.5723183986172976
H -4.161741635713375 1.773430858128642 1.5157365133227096
H -2.5537268628856937 1.6649692764136703 2.3049103600755765
O 2.229004703804653 -1.0673823699997644 -3.9415902225532067
C 2.5607883514667376 -1.92754841582029 -1.433974283300594
H 2.663277797827404 -2.4962855635984353 -2.34612818723754
H 2.0758907128496222 -2.5253582419217873 -0.6668778047800135
H 3.54021746614613 -1.5968627861103517 -1.0981832241130212
H 1.9583610991715183 -0.5478582565892959 -4.697353443389757
Rh 0.7194946923781939 0.5852947350781192 0.5010689375431786
I -0.5128553090053873 2.010715093401123 -1.2566613706843957
I 1.396327923843228 -0.2815029226005778 -1.9346633332975098
O -3.5794883604129653 -0.9543306986559777 0.9286195466268036
C -3.14277125768647 0.08327491831452424 1.1181701145406886
O 2.786738103974475 -1.2294931852271516 1.674312939976883
C 1.9607866825368903 -0.528534423456514 1.2718714556816635
