20
## STRUCTURE-ID: 645bc10af8361e6fc26006a8 ; CHARGE = -1; SPIN = 1
C -2.33313274546827 -0.21129239307389447 0.4155610398724467
O -2.819076690102973 -1.01152430486191 1.0890727519571068
I -1.5579349487229819 3.2558363050299133 -2.247876134110047
C 2.125248339536891 -0.3814481100829679 -2.1428749562507416
H 3.0106301394106025 -0.8741955742033279 -1.7464994284992061
H 1.5560885445849046 -1.1390109770606058 -2.6843561025612064
H 2.388855685526567 0.4394364463103883 -2.8067264550649482
O -0.21864842665052328 -2.616471709365405 2.088781169536322
C 0.6257584220153388 -0.06578258670219651 1.9396282058678709
H 1.410101559341355 -0.37436849797784494 2.617198767775315
H -0.33085899222873805 -0.0846918760889949 2.4458994253386317
H 0.8256052328079974 0.9033463582822524 1.4984422549891199
H -0.2597545460034253 -3.559707987245808 1.927920634625133
Rh -1.765952094285029 1.1506413600872332 -0.674391423078302
I -1.8764066760818332 -0.5797330694089511 -2.64541578312905
I 0.5491739535747705 -1.4979924175996613 0.3775990628011543
O -1.7655420121174379 3.0513077195301737 1.62402938616307
C -1.7619758640537833 2.3195220792140048 0.7319574378161564
O 0.9043063539796176 1.1998077418738327 -0.7906712506919823
C 1.2935147649369978 0.07632149334377579 -1.0172786033567776
