21
## STRUCTURE-ID: 645beb2c3c070f43510203b4 ; CHARGE = 0; SPIN = 1
C -2.1182630464282353 0.36110773353703746 -0.8343872610626525
O -2.8701795777687886 0.6713996620728907 -1.6396539733681421
H -1.9126849465230906 0.9159642369737616 3.278364479629812
I -1.1286740683888452 -0.31934717782380045 2.693366214730509
C 2.160112789315297 1.0745783061578251 1.709304808651696
H 2.105866833792467 0.0675610006466982 2.1243908837383123
H 1.5915859706594695 1.7449939059419468 2.3527432974307385
H 3.200985010838553 1.39579319283077 1.6744037663440985
O 0.32363654461396885 0.01832127102043608 -2.672702094130797
C -1.1147699722323634 -3.2390404605781997 -0.1937215371859346
H -1.7572116798945996 -2.9934829148115014 -1.0322518659861406
H -1.5912778216631651 -3.0221692438647114 0.7572822123379707
H -0.7830364855623418 -4.270844509490889 -0.24087862848082667
H 0.5375382674617089 0.23056595475861535 -3.6045195860338564
Rh -0.3174338712010499 0.5572107608326442 -0.049214385636537794
I 0.6651110089043396 -1.9977294098762965 -0.34818888200406606
I -0.8907714544742961 3.0857871221065016 0.692130217568799
O 2.2812655835036284 1.3460070417662617 -0.6577507863147477
C 1.602843053188113 1.0850024769708595 0.3098538516546272
O -0.028696178553209765 2.202329677427768 -2.376449137692648
C 0.044054040412443596 1.0859913734013904 -1.942121594190214
