20
## STRUCTURE-ID: 645bbf4c8c87fe46d232ebb0 ; CHARGE = -1; SPIN = 1
C -2.8210379890286603 2.131451307228209 -0.8281979115885527
O -3.7835099719750755 2.7058302222748627 -1.0629143408159338
I -0.5795172512946981 3.8879779660398395 0.00861411756846047
C 1.5733872426423747 1.2724853210619635 1.38746055541163
H 1.7286656863956096 2.350953799236834 1.3683389043910847
H 1.0674915257666875 0.990307069242448 2.3076138796871155
H 2.5521856788945723 0.7927025072614664 1.3474431953566575
O 0.32877944171121787 -3.4574849024436953 0.8723980845028542
C 1.0601783279913637 -1.9345030483394554 -1.1694755611415903
H 1.9434221226866295 -2.4609747541233054 -0.8364293167961286
H 1.3053951485847686 -1.0482779124729344 -1.7414692080085432
H 0.4174746714790516 -2.602632325318957 -1.7280928342778064
H -0.026631242619544197 -3.754950200681132 1.712523339677566
Rh -1.2649167300566118 1.2633408312997412 -0.3275594666981631
I -1.8981992168145274 0.6422552118433675 2.437652242802986
I -0.012926605962574389 -1.3440204079611655 0.5520020465245143
O -1.9533603995321813 -1.0381663398047978 -2.1175839017844784
C -1.695693513387252 -0.1883110702544684 -1.3808850714487417
O 1.2470673069179554 0.9669184875189551 -0.9724388033396109
C 0.8117457676008825 0.8250982383922163 0.17100004997667836
