18
## STRUCTURE-ID: 645bcccfb4555c794f315fb0 ; CHARGE = 0; SPIN = 1
C -3.5660411010005104 -0.38468624504216153 -0.4088348638608039
O -4.3612314046014955 0.20910659803179352 -1.001237602042848
H 1.4241442389991776 0.9610882948367238 1.1731073366764413
I 1.3671169236687022 -0.41402725433329784 0.3879040000974016
O 0.43303041389217706 2.011648530892432 -1.0391817099552325
C 3.408102814694972 -0.7842506387770566 1.2467158694042395
H 4.070924079002419 -0.016715722138297872 0.8625727198961662
H 3.708219096240725 -1.7716244223468112 0.9120133594709587
H 3.30449847539936 -0.7491350174647682 2.326524137356363
H 0.6774267459491085 2.856096215640374 -1.4708834602053862
H -1.1793502774387599 -2.4009102447003676 2.6332406952169314
Rh -1.5138382858607051 0.00921113161363099 -0.37429360349412316
I -1.4126987350473916 -2.9214779999936353 1.1563257406615859
I -1.695119555538815 1.330078835618973 1.8684254035526322
O -1.5836809151837887 2.3359974026594053 -1.9336987298190635
C -0.8408025519510606 1.6554820218470416 -1.248865756239136
O -1.0331417868795074 -1.1587757782677084 -3.0799102728475907
C -1.2075581743445964 -0.7671057080763043 -2.0099232638685014
