15
## STRUCTURE-ID: 645bd58011003b30476df39d ; CHARGE = 0; SPIN = 1
C -0.9222971768169176 -0.5358755420258381 0.6140963010795107
O -1.8034089790666132 -0.1275571318295188 -0.061002257746205255
I 0.9925995594095615 -2.8074142889195555 -0.9139743623989409
C -0.8705946222534253 -1.166928019986288 1.9521708414577876
H 0.1534841947259743 -1.394397500488098 2.283155295532621
H -1.4386257708999783 -2.099676212320327 1.9046533820178346
H -1.3522712140586937 -0.5027562983731295 2.6735682901190443
H 0.3614824028600786 2.816127296961771 1.1447381341328753
Rh 0.9322604262650983 -0.3894249043555812 -0.03989784876141214
I 1.5458020797816476 1.7977947349456325 1.414764254346057
I -1.0077708792402411 0.14976172067877622 -3.5458768580232825
O -0.3984735033780932 2.1287418258647595 -1.4174952397475973
C 0.08398642104867139 1.1999492814717563 -1.9916344332552796
O 2.3820429469260156 0.43706447653122893 -2.2984467718402493
C 1.3417841146964837 0.4945905618506591 -1.7188187269155968
