18
## STRUCTURE-ID: 645bb7c2a099ca4c65108f1e ; CHARGE = -1; SPIN = 1
I -2.332620413264816 3.4115711872170906 -0.1430032375271587
C -2.3930293264348474 -0.04665228417366404 1.0726831007749222
H -2.9667971834627593 -0.048461395541869526 0.14280035922643874
H -2.6937001341855935 0.8176325523078551 1.6728083873000317
H -2.634084234113513 -0.9524658496193411 1.6360872567261429
O -0.36220009494060273 -1.8083553005275304 0.39142153352484504
C 2.7034054378341006 -1.7145527847862903 -0.5362256124528199
H 2.855076458121889 -1.2663842697466772 -1.511973571207202
H 1.78091074564472 -2.2840362793336992 -0.5018136816607525
H 3.560665597845312 -2.297758365801825 -0.22476645604878562
H -1.2123891313602908 -2.2277252086597232 0.22385482827989472
Rh -0.35057390270449684 0.062497515544945335 0.7679432696217725
I 2.6950369788355264 1.6079379014968314 -2.839658440331867
I 2.452852825844294 -0.09709729825409585 0.8691561314252781
O -0.15873080516027063 2.14119580787476 1.432032364853651
C -0.5673567369109808 2.1961609351844023 0.2693634365213027
O -0.09938158637941512 1.2168440311104813 -1.9488550072503894
C -0.27708449520824446 1.2896491057083503 -0.771854661775301
