21
## STRUCTURE-ID: 645be869cc37597a2c2fb200 ; CHARGE = 0; SPIN = 1
C -2.6124582176887796 -0.2328109827293033 0.3300358570919315
O -3.6579794559202883 0.17398376548267644 0.09396958135934891
H -1.4404992598392323 -3.6841905546784823 1.910229926747129
I -1.1218303584307983 -2.368217652879113 2.7473032749025235
C 2.1396757378166527 -2.2100056069294687 0.761029919210665
H 1.4237930522802897 -2.850266699456049 1.2682276049810806
H 2.754419807230759 -2.8380795097736837 0.10867384968497429
H 2.7894968566562177 -1.7159181512794108 1.486991239173895
O -0.4615238092673509 2.475071059083585 -3.16324530490807
C -0.8244268820494091 2.8939658338361145 -0.5281223164335451
H -1.29442776499171 3.5712455197896795 -1.2265664405396917
H 0.16184590435029753 3.2571669830856145 -0.2650836339069476
H -1.4325683956365296 2.7421389975636514 0.3569289432720243
H -0.24938045183789076 2.037033183712853 -3.986299685343534
Rh -0.7536608157904467 -0.4734908295880664 0.7013429328149963
I -0.3039787758047607 -2.3324376000422005 -1.3673238914659436
I -0.6105125795705699 1.053667127506823 -1.5352422597319753
O 1.3346210896726118 1.4199912013345177 1.7554733770057935
C 0.6085400734143084 0.5904040696968367 1.416520176057836
O 2.0082062697350413 -0.3293224672740647 -0.7717367877545476
C 1.5426479756716007 -1.179927686462497 -0.09310636221794377
