20
## STRUCTURE-ID: 645bccd353ab5c47f50203cb ; CHARGE = -1; SPIN = 1
C -0.9497793944222079 2.365939123922302 -0.2890403187533794
O -1.6550736514693394 2.9669369323184767 -1.0050630051739098
I 1.7232767401839757 -0.07436960392426807 -0.6601916627221153
C -0.34052116954841455 -3.3162329638061268 -0.437591318230303
H -0.16116889267762963 -2.829886789662916 0.5724415736480244
H -0.2618370433165743 -4.321756590995567 0.025359506592028028
H 0.22813434627590143 -3.6035665617557755 -1.3588788407690828
O 2.1418354005832594 3.4337250099419485 -0.5810670432251576
C -1.80330157171253 -3.039876275832003 -0.8122516069412962
H 0.37171586020438424 -2.39585483089111 -0.5881672202769737
H -2.2295714122573442 -3.8368913937219253 -1.4136823625718622
H -2.415158294215495 -2.8530331539004283 0.06583794102032436
H 2.50390994748819 4.309129702669847 -0.8208225884982285
Rh 0.3414871770538479 1.7885162804790364 0.8852277389643696
I -1.060531835549273 -0.19462184491862358 1.9531682395153462
I -2.058826343107495 -1.2207906402973023 -2.0498371278584466
O 0.8523233610744956 4.675766390417083 0.7253499740528867
C 1.13869613655765 3.5370237623786602 0.3438172207677717
O 2.1723008877462666 2.526671186060779 3.132956348544302
C 1.4620897511083193 2.0831722615179267 2.312434551915702
