15
## STRUCTURE-ID: 645be4edcf920718c4554eea ; CHARGE = -1; SPIN = 1
C -3.5738081234742003 -0.8702243792194971 -0.5508532581712442
O -4.566913395215395 -1.4139153948482202 -0.7259800749142511
I -0.6909128169731006 -1.2646006187991925 1.9989788240606605
C 2.825920427919291 -0.13378625724387613 0.9139368236693944
H 2.433665199834603 -0.3780702139183968 1.9043855916099819
H 3.202429005867942 0.8897965452721751 0.9697978725272053
H 3.6114078578025 -0.8348295562364787 0.6333551165147522
O 0.7082697266296202 2.60747171276162 -0.7788476634120179
Rh -2.0018632450643783 0.03144589661626044 -0.2173243983813602
I -3.287838737678769 1.8172906743195325 1.3379781375937316
I 0.10993822723490926 1.3595465598282053 0.40636003040670676
O -0.8012170233842707 -0.48903090764254814 -2.915455304015736
C -1.2605770882961052 -0.37947137436965345 -1.8661694535949285
O 1.5502555103753648 -0.7755927715184598 -1.0536717739176806
C 1.741244474421804 -0.16602991500123568 -0.056490469975112916
