20
## STRUCTURE-ID: 645bcd1ad01e8a7c230fad2b ; CHARGE = -1; SPIN = 1
C -1.527676298987137 1.7194424528616523 1.6632038627826415
O -2.333790239079941 1.6561642652046784 2.4891290997530207
I 1.088118130104762 -0.1619056251275036 1.7335115644760903
C -0.46453963837914375 -2.6748475056395646 -1.2009584672224014
H 0.7974063950116531 -3.1157098400486025 2.292760492658458
H -0.8069745313917815 -3.5980162167065255 -0.7380680442200316
H -0.398267768682928 -2.8183943459042977 -2.2750140793879097
O 1.9632233239641896 2.120333781554179 -1.4391720877720986
C -1.452078245502756 -1.5888991239359558 -0.8590969179428787
H 0.5234265280985843 -2.441281677577828 -0.8109709981264914
H -2.4456145607702147 -1.7947524177082763 -1.2461959555247248
H -1.4901444856457118 -1.3966089524529932 0.21035119282301087
H 2.8702379874869313 2.316461486330776 -1.7464175667945778
Rh 0.004687372975915479 1.9796979136080557 0.633416877608894
I 0.2742935809458601 -4.58742550710868 2.3876849121044907
I -0.8908752011244654 0.3716800503556847 -1.7580336076604899
O 2.771717137147704 2.906145467715108 0.4697723964108391
C 1.8065594657967614 2.4118661779172808 -0.1133264821333648
O -0.12201897329043968 4.9146774834827305 0.03553279063365876
C -0.16768997867782304 3.7813721331800654 0.27189101753385075
