21
## STRUCTURE-ID: 645bec4369d30625d836ef61 ; CHARGE = 0; SPIN = 1
C -1.5034579989388603 -2.2850762863747884 1.0582801011107312
O -1.3468939719794704 -3.076626970134478 1.8747066278133213
H 0.15475805387392463 3.2192620515689527 -1.7487490872621836
I 1.5915580400580691 3.4236044770527143 -1.1566579088884574
C -1.6463559552883413 1.0360462400420467 2.1712948379279884
H -2.4859611505188397 1.5951170087264568 1.754539591144312
H -2.0577384578442968 0.3254394502635773 2.887984427040027
H -0.9583734971053409 1.7200556860817906 2.6690788746484393
O 2.1662925865549223 -1.1769780644159489 -2.4504803561163007
C 2.978280582567225 -0.07355572903308828 0.11054667972959446
H 3.5842513325957728 -0.9437981140220053 -0.11242036681598222
H 2.701047788206668 -0.01784793842234135 1.1553854596678863
H 3.4408756749491847 0.848639782970139 -0.22544303052684755
H 2.461400375959074 -0.5537051266659284 -3.1254509654072584
Rh -1.7433503052703903 -0.9813424009103057 -0.230247369284375
I -2.206038380341121 1.1066721497022218 -1.7186388881781376
I 1.16041654029836 -0.3272110860662053 -0.9759891459714485
O 0.2635522037138915 0.5974690397057747 0.9091195518873775
C -0.9534210526025058 0.2974005075135446 1.063159138185285
O -3.06854475770038 -2.6635299413899323 -2.364217408653076
C -2.5322976511875814 -2.0700347361922287 -1.5458007620508962
