12
## STRUCTURE-ID: 645bb4207aeabd1b82507c66 ; CHARGE = -1; SPIN = 1
Rh -0.5532176152481859 0.3337031933528923 -0.6486126115941719
I -0.6980930047881921 -0.011053430771868586 -3.19507824233538
I -1.2334810582133744 2.6376033707868123 0.29074852844861315
O 0.5561570597991714 -2.4074097679200706 0.04991396711299623
C -0.27032131699515727 -1.5360223965384134 -0.027780455512800156
O -2.6910237399073202 -1.1216601462954237 0.592236732026986
C -1.5374731843812246 -1.1225009792852574 0.2802570995484373
I -0.5199744097636252 0.9930905066253114 3.2388447363879176
C 1.4879486835124072 0.5156906307563605 -0.18886991555581056
H 1.7846882785172775 1.4215601280808292 -0.7304538418543028
H 2.0475828619164442 -0.34923692408981366 -0.5458310773383189
H 1.6272074455517693 0.6462358152986308 0.884625080665836
