15
## STRUCTURE-ID: 645bd0a2e217c84a4a507c5d ; CHARGE = -1; SPIN = 1
C -1.4981944240272163 0.3964095747077949 1.6585527039628274
O -2.389562047327175 0.37586808177909836 2.380855237057201
H 2.934749338296895 0.843542837919674 1.8736248737472916
I 1.8786085166895434 -0.31949550794350906 1.5816248553325556
O 1.9944486297041835 1.2766449344081363 -1.2685704475868105
H 2.5034803516838595 1.3569100563150218 -2.0999163816563384
O 0.08928447804247659 -1.8792587646887273 -0.8514312617320041
H -0.3737083120282348 -2.1861274889844418 -1.6276814794606944
Rh -0.3071430459210774 0.521165815861982 0.20166663614508043
I -2.1883334206504186 -3.4989168618139987 3.3093061047602648
I -0.9057165945113339 -2.56105740465657 0.8965173567667021
O 0.464533424511248 0.41637732877580935 -2.625717371179677
C 0.7660613056187043 0.7222312573516886 -1.473538910257188
O -1.7363815649611682 2.6795321892190227 -1.2935570848644984
C -1.232126635120191 1.8561739517490623 -0.6617348310350502
