20
## STRUCTURE-ID: 645bcb7bf0ae8e4dcc0fad14 ; CHARGE = -1; SPIN = 1
C -1.8787371824910135 -1.1616897006584717 -0.7306559902408029
O -2.968015906128196 -1.4303462120855785 -0.47180598183241007
I 1.0633952850599104 -1.6576243840015399 -2.672742293075107
C 3.0659498536410155 -0.8890752025583375 0.1652715939708205
H 3.3352317900379678 -0.36314205375620473 -0.7518479837161868
H 3.808711130450755 -0.6797723054401303 0.9344387783792382
H 3.039076290851744 -1.954237239949043 -0.055938754545923126
O -0.8896060702053518 -0.7571564381194495 2.458598815043836
C -1.9009135359814526 2.519994989470145 -1.5171594540628301
H -2.3659662886677526 2.3906050034396022 -0.5456994544909664
H -2.3882068377806127 1.9187426440423578 -2.2770289524619067
H -1.8557084543204825 3.5637163903591302 -1.8064128002994995
H -1.3016426220122135 -0.28996995958851907 3.2144705358572963
Rh -0.03614737262421289 -0.7807971197000751 -0.2988314582042902
I 0.1353691782441879 1.8186685827640017 -1.3247054227572952
I 0.166770847331296 -3.2173045915952936 0.8063856514527848
O 1.6527734623718626 0.3588808655122652 1.598997039796768
C 1.7203597623011058 -0.3826417201152478 0.6333468312593743
O -1.4852636533108987 1.036025823253053 1.2990844399555983
C -0.9174296767676611 -0.04287737127263195 1.3422348599715141
