18
## STRUCTURE-ID: 645bb5cf91b3c561ef7e8a90 ; CHARGE = -1; SPIN = 1
I -2.1333183946443985 -2.503956428354171 -1.750264571988426
C -1.9873390711774732 -0.16321159686980427 0.9605043562974199
H -2.6151972540887924 -0.8350775083856816 1.564943177540057
H -2.6044882047977085 0.31143852967471436 0.1960057818278991
H -1.5621866008690568 0.603580820375278 1.606811927840085
O 0.7827292205473604 2.007061823426085 -2.860393046003091
C 0.8324619095178379 1.8357659007339595 -0.19779337910943515
H 0.3457442438855429 2.7793684374207386 -0.40541469602489205
H 1.8942196272234102 1.9016119756713055 -0.40078575314063986
H 0.635838457537975 1.4902682203191124 0.8076303675878181
H 0.6084343822599679 1.8056707917852497 -3.7818983930925136
Rh -0.6333713370041042 -1.4636496497952056 0.08870064929465832
I 2.9937736293365567 -1.4296451195547937 -0.13412022574737018
I 0.029106901643507325 0.43520070365255326 -1.5766873055745154
O 0.7806729147427913 -0.2482923934097706 2.4636488109288717
C 0.5446637926200394 -1.0248114302914642 1.568037362456095
O 0.8931703921401591 -3.340161738369452 0.8452091191167016
C 1.1950853911263999 -2.1611613380286525 1.0058658177912754
