20
## STRUCTURE-ID: 645be2b4173eb413ef53cd20 ; CHARGE = -1; SPIN = 1
C -2.0797965748344374 -0.20382205766854486 1.6855805265832933
O -3.210493721165805 -0.15119505257463237 1.8389693508332623
I -0.6418271089024822 2.595292750375212 1.6723616078850214
C -0.003935677277370324 -2.073890467729865 1.5474216058985801
H 0.9003576508709263 -2.436618772690181 1.0521898116443809
H -0.8313820958087978 -2.706602979785672 1.22425120449911
H 0.11944124878083723 -2.187304439402754 2.634574985004976
O -2.054596489313723 1.1039115833863042 -0.8784745434567875
C 0.5383538770685057 1.879944771739025 -1.8953655707937853
H -0.2905961872809733 2.5728947663733837 -1.9541778178107057
H 1.04066841592954 1.7694169831751545 -2.849723200912738
H 1.2370183296505806 2.159061295998177 -1.1151704734190437
H -2.7699273301364014 0.9201157001744417 -1.492108619824829
Rh -0.2620799789879834 -0.021766834961026115 1.2591004487377577
I 0.3439448546813764 -2.8026690469361997 -2.342944027959978
I -0.2839588054355241 -0.02764838883523991 -1.3693340233259625
O 2.416756598405979 1.2426479341155288 1.1575266340623944
C 1.6651911716408812 0.38966429938859576 0.734581034399645
O 2.343690386281204 -1.5500733480371596 -0.5004351305027535
C 1.8231714358336677 -0.4713586961045713 -0.40882380154184456
