15
## STRUCTURE-ID: 645bc2b58e5db73c4c2b1b6d ; CHARGE = -1; SPIN = 3
C 0.1637292583462911 -0.8199428137402551 1.3460709048980966
O -0.21554265589694885 -1.7339977705127316 2.0589298882449483
I 1.121746312626396 4.373612732900362 0.21736328590600842
O 1.448978519490732 -0.4483586759407916 1.3108317355081929
C 0.7774874151223031 -0.3390667897043022 -1.8717993550987302
H 0.4116723810374022 -0.24270432288390462 -2.893256850477695
H 1.7640821971180338 -0.7998880629834234 -1.850583700158105
H 2.0150887282641596 -0.9312770212687225 1.9489493564889642
Rh -1.0890180318792737 0.16653310889141296 0.13989956035712658
I -2.902459404539646 0.5355675073703041 -1.723949165023069
I 0.9025104879018842 1.6581097948451309 -1.0059161240648937
O -2.0867235953858785 1.124665193391213 2.8040823454109214
C -1.74424808948029 0.9351956840990585 1.7239879969249488
O -0.37686415435853554 -2.3365605379683845 -1.1243058953329046
C -0.19043936836662975 -1.1418880264949567 -1.0803039835837809
