20
## STRUCTURE-ID: 645bcc63e8003439473adfd3 ; CHARGE = -1; SPIN = 1
C -1.3044661757950313 2.0190345208090523 -0.01219563114146601
O -2.1411130608524394 2.6689489636294255 -0.5136471012213149
I 3.348857728995154 0.6287144523117348 0.4682689889422991
C -0.6513793545738279 -3.4449576810749343 -0.378162463179505
H -0.6270716586678723 -3.080991400911374 0.7096921954413222
H -1.491728028709262 -4.09226706756558 -0.025428927821227014
H -0.2790604938871005 -4.249381054524128 -1.0612723272269096
O 1.1742847332928599 3.144984905286594 -1.1174459267516528
C -1.2184255551857555 -2.291357582407292 -1.2281864994551146
H 0.4517281066509284 -3.291107236061088 -0.1736693636603182
H -1.488432889770843 -2.5979320624494933 -2.23423493683623
H -2.059969573874669 -1.8103976095110978 -0.7373343398205577
H 1.4747241875255488 4.0064631662044174 -1.4658712375444527
Rh 0.1609854895729121 1.5343583361775313 0.9845629913476208
I -0.7583591476686238 -0.5984878980880244 2.159664872271199
I 0.28790006649100447 -0.6069751340359822 -1.529056212272586
O 0.7756562992212286 4.384392425038655 0.6824895728196948
C 0.7522662739654055 3.2499644877150593 0.18912790096765766
O 2.1304573079136033 2.493857674355023 3.030359775268935
C 1.4631457453568784 1.9331357951016217 2.2523386698725463
