18
## STRUCTURE-ID: 645bb812b78ddd7dc12b1b7e ; CHARGE = -1; SPIN = 1
I -1.9526200105643758 0.28716986314945653 3.9008792883195365
C -2.2489787418653027 -0.08264748224049989 0.4704569711348768
H -1.997390708763189 -0.11202390358282184 -0.5900049653376134
H -3.1336609920724436 0.5481493471950853 0.6184058905769072
H -2.468461335138532 -1.0988414074304278 0.8079170620848355
O -0.05909852156009092 1.6586527149128674 0.06898431737706652
C 1.4053629620248764 -0.3564849478117082 -3.087069202510532
H 2.4426268430168467 -0.6545482541947433 -3.1626077763079157
H 1.3284066978799813 0.5779265565247225 -2.5459006328068012
H 0.9363441098841876 -0.29211510517668593 -4.0599840022056375
H -0.4517635210073045 1.470544171112749 -0.7890169253888966
Rh -0.7633680400490535 0.6946987668300738 1.6421122842540476
I 2.7945843612028725 0.45605153589240016 0.40306041040822976
I 0.3701947930571843 -1.8671464955372088 -1.9499868271768308
O 1.415151941161358 1.1696226958829115 2.895327135241031
C 1.3976024042319608 0.306357362251214 2.034294914444876
O 0.5122457799618658 -1.9403980049064435 1.55480069591821
C 0.4728219785990929 -0.7649674128710252 1.7883313619743166
