23
## STRUCTURE-ID: 645bd45a7ebf945a3c315fb0 ; CHARGE = -1; SPIN = 1
C -2.3308512524858798 -0.7571922506398693 -0.015699659333411668
O -3.198884460323461 -1.3291340367367308 -0.5430820894913265
H -2.218540302157106 2.65647667797491 1.1120694703953657
I -0.657647023778358 2.2830843868394552 0.9727010061240099
O 1.5621396554579943 -1.2267750328990867 2.3538307083675405
C -0.6483770642790019 3.8413582473367867 -0.5844324568008693
H -1.166847114056875 3.4479985438189584 -1.4531382591575424
H 0.3851609581276031 4.042184112262665 -0.839826618766434
H -1.1274588204952896 4.723318490392562 -0.17284456526606923
H 2.5282462214909547 -1.2243624135603133 2.5003785779654035
O -0.9033173146308707 -3.073320120886219 1.4616560608920788
C 1.6759172983594066 -0.9116045119600619 -2.414486000747491
H 2.0704878255218384 -1.0482489120929608 -3.4117296756337074
H 1.189856837263602 -1.806865965877872 -2.0481672898481302
H 2.4405632036179536 -0.5964778371204463 -1.7167009093604115
H -0.7424007764864817 -4.028962277388847 1.3257734870651428
Rh -0.6804725200277211 -0.36175564353889184 0.7212054511262399
I -1.5518857246420517 0.563708436171038 3.4487964420298307
I 0.2191260898439823 0.619300576708029 -2.484022485382862
O 0.13649709956109715 -2.9572443216001174 -0.4869083004288086
C -0.39930778886716534 -2.3286695642389437 0.4383160729732736
O 2.187316175732087 -0.02434867945387198 0.6009106678423947
C 1.2306787972537434 -0.5024679035101969 1.2354003654357901
