20
## STRUCTURE-ID: 645bc3aa429d1e78bd6006a6 ; CHARGE = -1; SPIN = 1
C -2.029833192273158 -1.7932819807868974 -0.1457404931404492
O -2.852751542005472 -2.5618971169704867 -0.3369733709846378
I 0.6465238321924448 -1.7671940647452367 -4.905910811128241
C -1.814476477135617 -0.1437860299764665 4.137646636979965
H -2.068664500326716 0.6193112417158975 4.8861522778993995
H -2.4504635272759296 -1.0317951874801348 4.282379901654192
H -0.7678147320928469 -0.48909169479472914 4.287574286705873
O 4.125789158697234 0.8240292796107268 -1.3763177455774274
C 1.6935649860456357 1.2886598133147313 -2.513879720109354
H 2.674972215649034 1.6754442833184702 -2.741147911855065
H 0.97541361487056 2.098198873330711 -2.414920284607422
H 1.3832677010858427 0.6077475336859427 -3.2982723949806196
H 4.78861185276943 0.5193775542118049 -0.7546554065230218
Rh -0.530497823173722 -0.6745274797685533 -0.27883982125642437
I 0.8459819197987748 -1.3084332311186082 1.7746585253808054
I 1.853029712608491 0.23505033773741857 -0.7422251863538256
O -1.464188569339237 0.7813555398956629 -2.717009572044861
C -1.143895411504765 0.17987288518766817 -1.7906219888231627
O -1.9544050615200892 0.6364836312512445 1.784723530780803
C -1.9101641570699444 0.30447581238086013 2.8633795479834525
