13
## STRUCTURE-ID: 645bb929aad0e54cdd39f2a0 ; CHARGE = -1; SPIN = 1
I -0.2652035939801113 -2.8607808023181507 -1.1649795680981776
C -1.8698421809485128 0.6782205393522229 0.3385038909215228
H -2.612946738053329 0.16668284025168487 -0.28564579995441064
H -1.98433225386819 1.7561645387689961 0.18774494498257807
H -2.1026227560002093 0.46228304844806234 1.3846707280808124
O 2.232344964398803 -0.06906615398979456 -0.953567575860965
Rh 0.007702771250348732 0.07356427677974539 -0.33969567086461827
I 2.0289870667066676 -3.35111069149008 0.14158268435802496
I -0.5024457699619143 0.9746027543089387 -2.7422715216441764
O 0.6909884158422706 -0.5067213565800271 2.504046257209472
C 0.3920842521577418 -0.30590936061285157 1.4077640923266297
O 2.130989612233738 2.03327011647203 -0.04413693723199527
C 1.854296210222695 0.9488002506092188 -0.4340155242246995
