17
## STRUCTURE-ID: 645bbcca2cdf12043d7e8a9b ; CHARGE = -1; SPIN = 1
C -2.6752812520475913 -0.3208183319319279 -0.30089711336117986
O -3.7396646939608824 -0.7671936584266447 -0.10513158741105731
Rh -1.1914621645154726 0.5873492414040072 -0.9006888780421319
I 0.36722936421301966 -1.4791148877677371 -1.9948427136939657
I 0.1935139504350128 0.49717587552669507 1.345839237153317
O -0.08393678743183446 3.0558779708331842 -2.18116227671227
C -0.3805460487727674 2.0806097160688606 -1.6060377780989226
O -2.501829099986518 0.44075828673327533 -3.4873271283224305
C -2.4543224030205755 0.9903365263277739 -2.389238800459804
H 4.185386826940715 -2.843495968234888 1.506079773673385
I 2.8944643070542004 -1.875249931923179 1.2252463062420442
O -3.3605129801896356 1.9931047346060216 -2.1563500008205603
C 3.152592151423379 -1.2012630060307794 3.2796508046991084
H 3.005549226995826 -2.0659604573093535 3.919655826670011
H 2.3774162363697324 -0.4546650799159601 3.428010336563194
H 4.146757917781519 -0.7711169297357205 3.353663286261046
H -3.9353545512881274 2.1336658997763807 -2.93646929433979
