17
## STRUCTURE-ID: 645bbc7f9d91ef4c946ee1cd ; CHARGE = -1; SPIN = 1
C -2.965130810987227 -0.3480125225446019 0.08088932502911686
O -4.072933238521811 -0.5919078796892944 -0.1596484332276318
Rh -1.4449315228908985 0.6573543497921946 0.5617088468482975
I -1.5582475764639188 -2.5823073087799475 -0.9265272651569627
I -1.8070397142626193 0.19516989771570056 3.162241912166925
O -0.07317779888780583 3.291555797843452 0.7882388420754926
C -0.43716320487507343 2.19145022767712 0.7765236599839832
O -2.0607950396793497 1.741524965230225 -2.0694760632296116
C -1.2810757521542004 1.1068224868111356 -1.3636582887204969
H 1.2866425009135716 -0.9447661150441885 -0.8231537729379657
I 0.970977035007091 -0.959374457409569 0.7320872191942701
O -0.12908807089245114 0.6527369863847583 -1.9331183536122036
C 3.1801824668875844 -1.2848361178064698 0.9806147635488013
H 3.4332479870014794 -2.197601704610782 0.4520556380505948
H 3.353776094263431 -1.3869935996388258 2.046514568893223
H 3.6851265290178734 -0.4132788016223488 0.5799561077838118
H -0.0803698834756628 0.8724637956914381 -2.8852487066896626
