20
## STRUCTURE-ID: 645bdb0e2096710bce36ef53 ; CHARGE = -1; SPIN = 1
C -2.512666601387979 -2.0777682197684277 1.0057061905981783
O -3.5523895977685713 -2.546645881121613 1.124402746620367
I -2.8892472344182756 1.1962430004797895 1.728736501663987
C 2.263834658923144 -1.862234692361437 0.3406722649432385
H 1.9976378089830462 -2.8159970167261013 -0.1151700591696192
H 2.4956964798122967 -2.0465305745061553 1.3905126520741902
H 3.13518434269897 -1.4349705106195236 -0.1572200890196387
O -1.7351965393619306 3.087859070442272 -0.9663330304098903
C 0.7186476507203754 2.4191667053001984 -1.9443591332661372
H 0.6547079805595915 3.497091640125746 -1.8866780486004795
H 0.321983579630224 2.0518027442768463 -2.881915947597071
H 1.7230638863429197 2.0599996149581687 -1.7741347121090185
H -2.577107629201373 3.0455662012121483 -0.5009494308161833
Rh -0.7736440563796799 -1.4369099141243902 0.7157921633238854
I -1.0115965407048835 -1.9469305546743096 -1.8456802922898041
I -0.4919150345181085 1.6487159924570454 -0.37983870584770535
O 1.3774702926687867 0.2385166018114213 -0.1573492238931011
C 1.0899130629236828 -0.9111011223992156 0.27616088615556067
O 0.05839695296655987 -0.9771303345596241 3.5523037215480677
C -0.2927734624888515 -1.1887427502028634 2.4753415460911308
