19
## STRUCTURE-ID: 645becb2ed30767f7251c32b ; CHARGE = 0; SPIN = 1
C -1.3063445190301397 0.17747541372930672 3.8122589667140665
O -2.1164530904859205 0.7387585275310481 4.428016862387231
H 0.2592647651191867 1.7143715831946575 -4.724614079276127
I -0.3272346759714136 0.3067705779256976 -1.7238388549384542
O 0.08203137580611666 2.5261191350823187 -4.177586260365478
C -1.0720999299267115 2.4431759243734934 -3.4605580059115733
H -1.2423497627229578 3.2399577608302366 -2.7445944345634725
H -1.900004414465989 1.9456935556271233 -3.9560495563756057
H 0.8519887361683334 2.863187273343134 -3.6462750950047367
C 0.24474265293346953 -1.3470209886400404 -0.637279902082089
H 1.1786883311968652 -1.1293560726530285 -0.13398068416479694
H 0.32751634485063164 -2.196454792999482 -1.303543796202688
Rh -0.005235066880156683 -0.884171474689179 3.0850269718465118
I 1.115740081734357 1.1200427341592138 1.7506959310233272
I -1.3644283610815189 -1.6383096766611445 0.7700363070805539
O 0.4120493331176225 -2.4821859126582293 4.757335092791744
C 1.1419574008051565 -2.5987121132261524 3.760107578361598
O 2.2260586375484905 -2.556391179834951 1.5928451569243476
C 1.4941121612846142 -2.2429502744340537 2.5519978017556197
