17
## STRUCTURE-ID: 645bc28836cc2818a036ef44 ; CHARGE = -1; SPIN = 1
C -0.5615247299524123 1.2638061494259858 1.9141611481544252
O -1.0474180730339928 1.4803887231737412 2.9345266145608897
Rh 0.2667678730275023 1.2402526200128479 0.23884945993790377
I 1.1420726434214759 -2.0456713043073838 2.4606316336723206
I -2.063679468951621 1.4695475681709633 -0.9755586271651197
O 3.1323767565383407 1.5913772074306487 1.036905102926584
C 2.013863737289756 1.4461804659044486 0.7984143769153303
O 1.499016457436426 2.6161647324827486 -2.036376847692504
C 1.1265437204115007 1.5570004948078413 -1.5360076741348305
H -0.6749711215227703 -1.6960689068692896 -1.790390476587717
I 0.1392559929449216 -1.678263940061632 -0.3676382521394364
O 1.2901824681362422 0.42156066318966434 -2.2903177245395647
C -1.7642411088461927 -2.0349758913588416 0.5843160180232884
H -1.7763301001677663 -3.0583168706019106 0.945228904414589
H -2.528128073168228 -1.8541759806913345 -0.16409390899183532
H -1.8695897712771503 -1.342203255688704 1.4129812368683232
H 1.6758027977139869 0.6233975249801772 -3.16563098422266
