15
## STRUCTURE-ID: 645bc44711a01c24cb600694 ; CHARGE = -1; SPIN = 3
C -1.7715421879846713 0.1667901281306729 0.5427250356537138
O -2.4762085765668127 -0.23553311936228005 1.3729703026125708
I -0.5245130655203896 3.19997259711306 1.1615845971114442
O 1.8231632986497595 -1.9125584170553318 0.35994740902404193
C -1.211202657714218 0.33563997314275495 -2.9919131229617477
H -1.269234412780031 0.4703727216790832 -4.052706337134164
H -1.7882948779008123 -0.39106755482914196 -2.4550436798015522
H 2.5571528149963214 -1.2835234249547747 0.5442378342374137
Rh 0.25444454868101707 0.58770484165727 0.6521140250041242
I 3.0484886501725206 1.221448671447329 0.6829774634580638
I 0.4618302009796714 1.0591112637643223 -2.0407377629477925
O -0.32552370630931365 -2.062780378029212 -0.07098996179810628
C 0.6107476437421754 -1.3668330181263781 0.26493186037209876
O 0.3036030006446405 0.016358240768751066 3.581444871033028
C 0.307089326910116 0.19489747465391732 2.4484574661368925
