13
## STRUCTURE-ID: 645bba03d73f4c4643108f10 ; CHARGE = -1; SPIN = 1
I -0.8343662189853802 2.464354538133838 -0.9068827889828509
C -1.422216448264669 -0.4339459533586386 0.4039209661511361
H -2.0736929564531374 0.242909499913177 0.9562960618376796
H -1.1926482500951239 -1.3104534447976635 1.0207836370038275
H -1.91757613319095 -0.7359481277568052 -0.5209325651255916
O 0.6163398381347835 0.7847988910173939 2.0680550703484264
Rh 0.4636855764032886 0.4100446367075652 0.021066631879950795
I 3.1627058277015974 0.6417719319378707 0.21285447463800786
I -0.6314501987038644 1.0430112121934414 3.5358234584878576
O 1.4236491546952161 0.444048679803531 -2.874561632887804
C 1.0604546100481556 -0.030381161121766885 -1.833638214526821
O 0.5329725086492035 -2.333372782826184 -0.9505954310207114
C 0.8121426900607541 -1.1868379198457777 -1.1321896678030552
