21
## STRUCTURE-ID: 645beb1901b2ba43d61fda94 ; CHARGE = 0; SPIN = 1
C -2.213265724253364 0.13019046769538922 -0.5039658192500835
O -3.0353513447692544 0.286105485992066 -1.2845513468699898
H -1.7182324418706607 1.353050050537775 3.512681323272997
I -1.0347965943067632 0.013399027262951509 3.0359287839138003
C 2.111344694378813 1.4470891399976806 1.6942678094832582
H 2.1552099181156463 0.5117852879983119 2.254401455690559
H 1.5120065478303604 2.1601155026968266 2.2581958430510802
H 3.1207520148381898 1.8365264902930087 1.5634463123959947
O 0.042149683257635025 -0.3982038131667157 -2.4158635759314318
C -0.7661606107206949 -3.288038598457505 -0.6528689730488604
H -1.1228511668775836 -2.841740246984441 -1.5743794702934062
H -1.552111906161667 -3.3630204260957157 0.09056322780855453
H -0.29896077351105094 -4.2503981300259674 -0.8323115691190975
H 0.21266009676882303 -0.31707243426098514 -3.377253457740293
Rh -0.39157580469622355 0.5244722163315041 0.14249268854145097
I 0.7656562665900661 -1.9770618653938692 0.1367836843619119
I -1.0941139560759066 3.09787056562253 0.5298017655704681
O 2.150172020091364 1.2924426516034646 -0.6853263830033013
C 1.512218281473726 1.190058799896176 0.3370088572865048
O -0.2074447905241853 1.819446218711516 -2.405647986770285
C -0.14730440957725213 0.7729836097459694 -1.823403169349881
