15
## STRUCTURE-ID: 645bd49b69202018036df3a8 ; CHARGE = 0; SPIN = 1
C -2.4852223504558553 0.10568406662155877 -0.9050925576496709
O -3.1219019551124245 -0.5011966777116358 -1.6363120226357455
I -0.006045083868709759 2.7769468355347895 1.6693928648941838
C 2.5934906167406524 -0.9551489688694313 0.23556880908437708
H 3.283365413594798 -1.5314371932000004 -0.380980587040534
H 2.3944547942074683 -1.5506617759286192 1.1285829718060274
H 3.0388121184808927 -0.0010365430159263844 0.5168047008826848
H -2.119105057358373 -1.9675152668124685 1.9187395472796167
Rh -1.4291546250171023 1.144472307729167 0.198038751929751
I -1.318319908033925 -0.6142864282469959 2.1816060627102027
I 0.36403064576256183 -2.5826817025884417 -1.1444414303001702
O 0.7822082552615671 0.2926304426239916 -0.7617381630037386
C 1.3447117969918647 -0.7214063107232942 -0.49235296957920105
O -1.7046501622007022 3.519874665547894 -1.5892309646675706
C -1.6166744989927222 2.5857625490393774 -0.9385850137102918
