20
## STRUCTURE-ID: 645bde19bdf845581136ef4a ; CHARGE = -1; SPIN = 1
C -1.364656405064745 -2.093517759886968 1.25631724795013
O -2.1298817457174213 -2.891463677911376 1.603477396469381
I -0.5432640953952044 -1.1476186026219999 -2.0818537914616146
C 1.1859549803617992 -1.8151041942987607 3.430051604818035
H 0.1882876485697861 -1.7508357350122357 3.864630633536467
H 1.6627265580330972 -0.8415315184284465 3.547672077019584
H 1.7696801248714396 -2.5765894183645424 3.94951628953348
O -1.0982286828288308 3.837015879710086 -2.0613851507286274
C -0.7167277939850032 1.8692732599832707 -4.013325812183212
H -1.445028369983598 1.174988310384451 -4.414516638254738
H 0.28942656242709175 1.5750358012732835 -4.284501854379504
H -0.9266310420487506 2.8944985111657946 -4.2912950371164795
H -1.4346627002001848 4.220673613307794 -1.2464626000364185
Rh -0.042403642647533796 -0.9011828147033396 0.761452995260588
I -1.415466213575326 1.4120523260151634 1.5350273914429975
I -0.8865304863430262 1.8395481716620272 -1.8836881587967218
O 2.576457226852328 0.5144811380221656 0.35058983681727296
C 1.5552719524060916 -0.018347825823965592 0.5017646239712399
O 1.688209034426702 -3.14454173194549 1.5346687043472067
C 1.0874670898412748 -2.1568337325269162 1.9418602417909339
