13
## STRUCTURE-ID: 645bb88627df294d195a4834 ; CHARGE = -1; SPIN = 1
I -2.126172876359197 -1.502232129756621 -1.7304575605480936
C -1.9157286834729326 1.357251143681052 -0.14665948415700603
H -2.5554517408697803 0.7987364162989034 0.5370783055461306
H -2.51917764323649 1.7479671929500402 -0.9693552331612695
H -1.4312230359507738 2.1815915634246816 0.38396237178398035
O 2.503858596869994 -3.1895329823975938 2.590414881928114
Rh -0.4116549413196548 0.1716788450652487 -0.9407797996939067
I 1.929340888764326 -1.205348860940768 -1.9309310775912074
I 2.459277802568366 -2.743987099170809 0.8099122292237838
O 1.205855618094042 -0.7662456754021587 1.522976850214556
C 0.8626479573656222 0.1301754058180278 0.7676787255910793
O 0.800200260222347 1.9039482236084344 -0.8569242118473939
C 1.198227797324132 1.1159979568215617 -0.03691599728876253
