15
## STRUCTURE-ID: 645bea15824b7942bf6006a3 ; CHARGE = -1; SPIN = 1
C -1.8466389176350886 -1.0753513024923573 -0.730627602045323
O -2.878320877620269 -0.594003219424291 -0.4775115654587018
I -1.7381850656653453 -2.4045408739067753 -2.720882151173227
C -0.154444265099282 1.6503382848587695 -1.0881835609412813
H -0.842484076767401 2.4590457337483493 -0.841864202822157
H -0.43386313354098566 1.1943621309528107 -2.0398902948822712
H 0.853345961408585 2.0600274987714484 -1.1866930338139496
O 1.703236189815813 0.631459542889839 3.687697737183308
Rh -0.013374395283016713 -1.2292674517477993 -0.43603336188291053
I 2.276034521213279 -1.0423249831968313 -1.6491528372562254
I -0.5909364909582575 -2.7286528440248388 1.6599013584473097
O 2.1063677915588825 -0.5939089740062298 1.7984866215136743
C 1.8932972684897276 0.01976336763636885 2.742061767381312
O -0.20069957184752404 0.9726414759068619 1.2215195645802288
C -0.1333349380691071 0.6804116140346659 0.06117156117022467
