18
## STRUCTURE-ID: 645bb7e3bef5ac2b150fad2e ; CHARGE = -1; SPIN = 1
I -1.7158788619110816 -1.3237006882988531 3.362223541359066
C -1.9667271542229947 -0.35640010029478564 0.029660238793288513
H -1.8137959578699465 0.18926232811978183 -0.9029730657805757
H -3.0078604426327344 -0.22573086690883734 0.3469393718923731
H -1.7747680704040605 -1.4199371331140636 -0.13866978387864295
O -0.45658536227171204 1.9764453470464276 0.5980806575473621
C 1.1532682874428382 -0.3633102629457126 -2.3215303450969067
H 1.5645085885868937 -1.3159570407902732 -2.0152409203840635
H 0.6920561301405327 0.12932583449804816 -1.4743831798770728
H 1.9109785472034815 0.2677801358701443 -2.7656735173803986
H -0.788147270589222 2.093447370652226 -0.29703141584934784
Rh -0.7923261653530171 0.29685144648648026 1.57488488407022
I 2.6565912089495747 1.6359879305504315 0.6934271620468366
I -0.36371114115740655 -0.7226714557084886 -3.775150800755686
O 1.1835557867454447 0.8869132711925617 3.1369838849562157
C 1.406630057979561 0.4625841612844233 2.0202740454379695
O 1.2626175221589766 -1.5629437980091916 0.634178591834726
C 0.8495942972049507 -0.6479464796303853 1.2940006510647144
