23
## STRUCTURE-ID: 645bd45959b0d70c1532ebbe ; CHARGE = -1; SPIN = 1
C -1.7549983146828707 -1.4937736121230984 -0.18223142767087283
O -2.3097863367774174 -2.2263003848664833 -0.8895562525866175
H -1.8835361242489126 -0.6358908712024518 1.9658823325230572
I -2.0671350782013507 3.7985881527593137 -1.171581237056649
O 0.9217515736902779 -1.4467678451993464 2.703845214288347
C -0.1671738083725754 4.670522251246011 -0.6581503580805178
H -0.17435049469559458 4.853593113542885 0.40900924789444204
H -0.06147946394306462 5.581107534701446 -1.232026191372126
H 0.583721762616118 3.9353430629493653 -0.9211958917642521
H 1.4788493599943375 -0.7022152507351795 2.995228198992635
O -0.3434404509435536 -3.474652303399711 1.7395113600270766
C 1.0368243531761254 -0.5880048236541174 -2.4165948782156956
H 1.0633697030813603 -0.5006748604397618 -3.4948467938380468
H 0.6338072714507581 -1.5453960107354723 -2.108223960147871
H 2.0161944096788162 -0.4535657823518678 -1.9763245597016839
H -0.6177321209292755 -4.341493162399915 1.3821209027893688
Rh -0.9480737313068989 -0.22457006878471616 0.8246370704018302
I -0.2894323993319731 1.8819387795466556 2.186015115762522
I -0.22869342418689242 0.9323170452219465 -1.6412234249551654
O 0.4744778138643647 -3.1312077539185297 -0.3172532116821053
C 0.2666408495955336 -2.7300701621989174 0.82130259344513
O 1.577972525052362 -0.7360643147399154 0.6412605472205991
C 0.7922221254203218 -1.4227627332181236 1.3403956037266072
