20
## STRUCTURE-ID: 645be5c827f8ff37cf554eea ; CHARGE = -1; SPIN = 1
C -2.1741900969205687 0.1108707747494243 1.784867677578795
O -3.0477186243462557 -0.30814250598722726 2.441780128529168
I -1.9437315383534397 2.271203885781986 -0.8220606200709428
C 2.1747028574554355 1.4937587886712973 -2.6950183942732004
H 3.2045094727179966 1.2533303742802504 -2.428070609691676
H 2.1023552902883798 1.8469694353609143 -3.724005969833377
H 1.598382730311034 0.570786707503056 -2.574149222834909
O 0.3942699237680233 0.09150892138247602 3.4529340502629786
C -1.6474382733411401 -2.7227008740435967 -0.2422052920721336
H -1.7195690274134559 -3.655495863313184 -0.7849026568214874
H -2.5909392798681847 -2.189076527793141 -0.2376190713088106
H -1.2903681544803445 -2.8724968236967108 0.7694665756326807
H 0.7579275073956928 -0.540729508039336 4.1037196708780055
Rh -0.6778686507787769 0.6326283440849559 0.8972029235053692
I 1.7666300567339777 1.6752970733829406 0.4808191428802602
I -0.21394099483544235 -1.4941994183593508 -1.2219415404293377
O 0.2669686672581304 -1.7534105111398215 2.214621851750458
C 0.08528599762671996 -0.5357811480858456 2.2777864959529777
O 1.275900822401506 3.6055570995751247 -1.8785423105591241
C 1.6788313143807587 2.5201217756857854 -1.8146828290756571
