20
## STRUCTURE-ID: 645bc8359b663f02ec732d34 ; CHARGE = -1; SPIN = 3
C -1.6439207108137686 -1.4301363650060475 -1.418644273748326
O -2.2330298616522493 -2.176980424282208 -2.0613660560619604
I 1.7332810766982834 -0.8917022299789656 -2.052748272140976
C -0.15282610684737377 -1.9545523052509726 2.3492516090414632
H -0.479918412752883 -2.8859305450011967 2.811742741215553
H 0.9084952135067303 -1.805278776051225 2.5564267620521317
H -0.7054740185164871 -1.1121421776237832 2.7588107938289714
O -1.8663062668584327 1.129203559674381 -2.4048949045744963
C 2.5124212855890935 2.2561640242018535 0.05826330292503449
H 3.103908094318741 2.888258612377501 0.7093561659110945
H 1.8865265409317047 2.8383295397988038 -0.6087763285949989
H 3.1301878139468644 1.5559782851975594 -0.4938762633203909
H -2.0434848261901584 1.9784609927962165 -2.8645107725983348
Rh -0.46636778152494646 -0.41513749130847655 -0.3934298235730933
I -2.835070002389307 0.5653855407512296 1.224838143473371
I 1.1800971576399244 1.108188122608615 1.311567183285239
O -0.42760369184245806 2.335970712260072 -1.2095767366352201
C -0.9588984878387874 1.262911175440621 -1.433370182224734
O -0.32473554324954945 -3.1649357336055304 0.3085840047221105
C -0.3172814721549284 -2.082054516998635 0.8523529070168273
