15
## STRUCTURE-ID: 645bea7db067aa3385108f04 ; CHARGE = -1; SPIN = 1
C -1.8387487225675299 0.4477598565197679 1.5729291362348534
O -2.201417516263561 0.7970999587843101 0.5255051359693178
I 3.1041257648297966 0.05519450848126664 -0.07512457016706352
C -0.27143257250394814 0.9569592436938136 -2.320617756599156
H -0.528875137576518 0.7728436096191749 -3.356387123796287
H 0.7833098000178969 1.188450761989655 -2.2232299751021323
H -0.8924814292386745 1.7284252482502191 -1.882630855223262
O 0.4687054023398553 -1.9532622002482238 -2.1923935995429855
Rh -0.05181455117776896 -0.7638784091855757 1.255206948798971
I -1.3704109579681552 -3.0638509128548623 1.0580738745488398
I -0.6354673745194951 -0.8612513485275093 -1.2673232293793733
O 0.9343555105771446 1.977569903837768 0.911068214904628
C 1.0176651943491162 0.8089025972065728 0.937543266103526
O 0.9411909005539197 -1.123571373177716 4.057169500208599
C 0.5412956891479247 -0.9673914443886392 3.0002110330415843
