12
## STRUCTURE-ID: 645bb3f92cd8f831a56006a3 ; CHARGE = -1; SPIN = 1
Rh -0.6132122936929317 0.3646436178145203 -0.39096720579808975
I -0.7126873272601272 -0.6339727804349062 -2.781632035624879
I -1.6684572758768272 2.6799554559851435 0.11771040714570397
O 0.9058352719092445 -2.1569498302846153 0.12945668100298954
C -0.030926897630557407 -1.4171621500488556 0.15745497173511377
O -2.4349789376171773 -1.3830975580810825 0.6700931311475675
C -1.2478000020106135 -1.2669925005285994 0.8947751700306867
I -0.5987620049102753 -0.5281242227937366 2.9152658865998804
C 1.3542647993347368 0.9958720545833947 -0.43069383822612056
H 1.4393325544237747 1.8197679086300964 -1.144126208610807
H 2.0211009331539214 0.18147212424022222 -0.719252263453213
H 1.5862911801768345 1.3445878809184082 0.5819153040511624
