20
## STRUCTURE-ID: 645bc3b2f2760165df5a4840 ; CHARGE = -1; SPIN = 1
C -2.3136097343572417 -2.121956211657011 0.13480051306978622
O -3.4566818453523585 -2.0768262026821223 -0.08389116735064647
I -0.7161269162848098 -1.3781044980691268 -2.8902347152051244
C -1.6599580903611182 -0.3506542797685802 2.694658075190142
H -1.509978355996656 0.2637448240573617 3.5822869919338243
H -2.7203948339395447 -0.40627995284816604 2.450313529057415
H -1.3047619700740951 -1.364193836489106 2.8847648286613925
O 2.699388548402335 2.5712487063119998 -1.1496013241178666
C 2.8760613291637176 -0.07687182551135205 -1.9220537557985118
H 3.2933992891206243 0.7206217600154307 -2.5236289846202764
H 2.2503079006668747 -0.7324832203610164 -2.5189632917146474
H 3.6425946725559815 -0.6390822305671406 -1.399384010787972
H 2.6211066486309336 3.292192139059493 -0.5205478464896557
Rh -0.9475996646316214 -0.6090730125735202 -0.2704672078805907
I 1.3087339245176983 -1.96730856175894 0.5498520866538595
I 1.6627243923278179 0.9045196718765404 -0.47047663495878356
O -2.6815493142041715 1.7068594446066034 -1.0510101599977086
C -1.9950186273566552 0.8240389300459422 -0.7422410065898514
O -0.16037183268877817 1.2058284855826202 1.7129366540175537
C -0.8882655201389672 0.2337798707301581 1.5328874269274166
