15
## STRUCTURE-ID: 645bd612dcf0dd2ea95a4846 ; CHARGE = 0; SPIN = 1
C -2.605230382701705 0.12701198451392745 0.4931066428230609
O -3.7195062225015616 -0.09329825746781281 0.5644970303267238
I -0.9649241255027116 -2.271681381504542 -0.1717121869343204
C 2.2901442958405624 -1.0922488548324227 0.2638279077386726
H 3.1697530452625697 -0.5527342408730076 0.6293923098918495
H 2.554496683336298 -1.5878398326064527 -0.675538245805782
H 1.996624383975152 -1.833514332101742 1.0035211562720543
H -1.5569622695540877 -0.443938909923934 -3.5862939320188687
Rh -0.7323848594078959 0.29028818840165604 0.4961310316276767
I -1.537496142096123 1.0249217470739918 -3.0175066630221354
I 0.6913111164022536 0.48266819092005214 2.8723558966547538
O 1.1765668167667143 0.7690477072795115 -0.8248619298485875
C 1.260733649519995 -0.10262951651806444 -0.02240118210706619
O -1.0708245392005509 3.1954271840102466 1.1025157021370375
C -0.9523014501389605 2.0885203236286816 0.8729664622648448
