15
## STRUCTURE-ID: 645bd5ac34971b6217507c5a ; CHARGE = 0; SPIN = 1
C -2.4215876826799687 0.523542055037492 -0.7850989256765244
O -3.5350735363196133 0.7644260638187492 -0.8074679080241884
I -0.5170928834737031 -2.106827674986972 0.6304101732127904
C -0.3628259977243454 -1.3011344633230317 2.642228918144758
H 0.6825096249858176 -1.0842522568405484 2.829119266408144
H -0.7395897270120144 -2.057837479199883 3.3195327312286205
H -0.9628727758900087 -0.3985759024121724 2.680249243374301
H 1.9141688802807073 2.2801548117714057 -0.3068086686170077
Rh -0.568340674308291 0.35605799597433063 -0.8284082437705352
I -0.5142061056683083 2.3278992560322496 1.0057036187617077
I -0.34387766412678444 -0.18919075355248305 -3.547791811362819
O 2.304911764502259 -1.22671248634604 -2.334142494982128
C 1.6098355683930181 -0.2912954395885106 -2.192693594272264
O 2.154586575284109 1.6820007313209968 -1.055739883454285
C 1.2994546337573238 0.7217455422940814 -1.2490924209706622
