12
## STRUCTURE-ID: 645bbd5baa7e5e6157732d3d ; CHARGE = -1; SPIN = 1
C -1.899540433055496 -0.29884947796433714 0.15802963246886595
O -3.008224113319536 -0.16039102439528102 0.3985195947242828
I -0.965423346453849 0.8170314260295795 -2.5972830245204253
O -1.1160734154979304 1.70676717050022 1.3082414844401538
H -1.4146284177614843 2.6117830624395806 1.3973164892228238
Rh -0.17128449684247574 -0.6271791217200399 -0.4901770435249233
I 3.8107835882942864 1.4078830993111286 0.4720771659248234
I 0.9764193870951616 1.622176613311917 0.904063831565259
O 0.08337777669194149 -2.9424728170338956 1.4096969735400766
C 0.009545729799574042 -2.0945854629589524 0.6431719973389072
O 2.306627803700471 -1.0715846252123715 -2.1337320373263378
C 1.3884199373493404 -0.9705788423075525 -1.4699250638535328
