23
## STRUCTURE-ID: 645bcfe390f6a70be05c012a ; CHARGE = -1; SPIN = 1
C -2.677968147391163 -0.14948294289393094 0.8350181279344265
O -3.747964921214627 0.248330810009979 1.1182641765776349
H 2.938861916377373 0.4065352234908077 3.6817795293850737
I 2.774229961610897 0.4143168366938264 1.9911235748930236
O -3.0222990332632795 -1.6231861253698774 -1.937199542317344
C 5.017864237504776 -0.11799317549144629 2.6403174406324217
H 5.566209635867394 -0.24997206903942662 1.7066196793081967
H 4.930842438086579 -1.0538274771305467 3.2066873479854
H 5.362313467752502 0.7556395687024051 3.2077273481413986
H -3.7461067124215037 -1.374253024741246 -2.5319507209310075
O -1.2312915301088567 -0.3088225691411884 -2.7443687739377456
C -0.7340067981817252 2.271633797627562 -0.8346222597464819
H -1.702849628844614 2.21931750918096 -0.33761836802346845
H -0.8068569781512702 1.796696294625206 -1.8071859115770723
H -0.44729459600662425 3.3143209710257313 -0.9599195822175135
H -1.7139812808590427 -0.15625501139655948 -3.566806417147697
Rh -1.1897282692791968 -0.911139622907614 0.09186325497899256
I -0.07531664915079073 -1.8359990116475189 2.2306688962949917
I 0.6307685445911393 1.2389415513571822 0.2541767269048522
O -3.0567005815402446 0.6520502214638217 -1.696854033527441
C -2.270301532036012 -0.3918696574357061 -1.6133260754687409
O -0.290903842480881 -2.985724889762715 -1.864130552501869
C -0.5075197008608257 -2.159257207219696 -1.0702638656400403
