10
## STRUCTURE-ID: 645bd08181ec7c25a732ebad ; CHARGE = -1; SPIN = 1
C -0.8246956088599712 -1.3614339573906395 -1.037795923651717
O -1.4163388452901706 -2.3764833424060408 -0.8008758276093794
O -0.2535595852418113 -0.766174570717826 -1.9457428069846214
Rh -0.32525407458713174 0.3008631721186676 -0.05060617771908476
I 4.812028511667855 -1.074635853670311 1.0628674085751675
I 1.9833782427826212 -0.5051457443137259 0.8076833467058624
O -0.9109483556596537 2.6900699467119358 -1.4947247930549485
C -0.18485499246915826 2.177685696588737 -0.7557046946374578
O -1.7182497748926395 0.5280625574081889 2.608431667365508
C -1.1615055174503262 0.3871920956712353 1.60646780100976
