20
## STRUCTURE-ID: 645be1bce62fbe7c6c799614 ; CHARGE = -1; SPIN = 1
C -1.7610689617682052 -1.7716391832329246 1.2488190422651193
O -1.6901960357799375 -2.8826847293688216 0.7896581041051255
I -2.332856056204288 1.9199124110412114 -0.5221760825590364
C -2.2451569317217803 0.20329856598928056 2.8244825143750845
H -3.1251219722564687 0.7760001808248504 2.526969649804985
H -1.4957784002936119 0.9013102703027289 3.2026215582593034
H -2.5216742270141115 -0.4804620590136399 3.6269229723359087
O 2.3376015486998134 1.653185849562472 -1.0077706210499973
C 2.2179154363947893 -0.4829837886175628 -2.792904444334508
H 2.237106159601503 -0.368581843922943 -3.872364580832543
H 1.9520974560284041 -1.4979481350775141 -2.513004441914979
H 3.1521164468130496 -0.18362693815809902 -2.33542569501288
H 2.1981532082676147 2.5823132451019832 -0.830801423244752
Rh -0.6089074279757487 0.0849216866547995 0.029876920244561494
I -1.0133328523443608 -0.5383212525062815 -3.70331410593777
I 0.7656686942315742 0.8450157933980097 -1.98498648358783
O 1.4704412743677666 0.8799292960125068 1.82970003303565
C -1.7046932525506 -0.5744536028290126 1.673324684365678
O 1.1330729664950487 -1.0901042570678634 0.6793737349090457
C 1.0346129270095392 0.02491849090682128 1.1309986647738126
