20
## STRUCTURE-ID: 645bbe92cc32e40eb76ee1c4 ; CHARGE = -1; SPIN = 1
C -2.6011452527861123 0.6543256195140426 -0.5460448740185065
O -3.43742484252687 0.04074906059086268 -1.0331844678867677
I -0.873800778186229 3.78834839796124 -0.29287197824915445
C 1.8354241826551563 2.1260572300452916 1.3250824359114388
H 2.0759317802059254 2.8895399693480384 0.5837918350241124
H 1.1738137483099045 2.5786792368482456 2.0619942174904478
H 2.7538787191100607 1.7815860012849565 1.7994587755803484
O -0.6608104519794014 -3.8401556201985874 0.721533144500661
C -0.055345778490745595 -2.173871876008147 -1.3299276457045035
H -0.02852855354911368 -3.253034256654046 -1.366281071061451
H 0.9390120368929731 -1.7539051144737716 -1.429405441663995
H -0.7297392109547212 -1.7687838047166105 -2.07723851949907
H -0.9163316428271423 -4.140064693122214 1.5950562564650375
Rh -0.7791238037485282 1.031695420467189 0.03603994552030161
I -1.5091848610479808 0.9183475050427565 2.593217574469463
I -0.7707843529688733 -1.6581856489860924 0.5915172631841467
O 0.5553935274677538 0.946615451499818 -2.63590843731631
C 0.008326382030413287 0.9251732958144445 -1.626683904937183
O 1.8335082241110974 -0.05423512458576756 0.4118180761802116
C 1.1869309282824465 0.9611189503283509 0.6180368160107771
