23
## STRUCTURE-ID: 645bd2f580d8544ea532eba4 ; CHARGE = -1; SPIN = 1
C -3.1373275830344336 0.4228061478302745 -0.4181764594927671
O -3.7792201423069307 1.017600159439833 -1.1878547135919935
H 3.4213225067029462 0.31756418757749183 0.42511813034166085
I 1.6814017764613371 0.37770896947952487 0.07145168507327702
O 0.3284812277408905 2.3297577551414066 -1.7261131025847263
C 1.8490110173735164 1.2667022348212462 2.065926029918094
H 1.9814651378007355 2.334776164498297 1.9428843067459474
H 2.6982893159840495 0.8116868714263952 2.5598699872878665
H 0.9311961727187847 1.0782318943326246 2.61010920690916
H 0.41025135002641905 2.848999932028185 -2.549084137763529
O -1.8613615689943368 -1.5880137559933558 -1.8916463090166071
C 0.631549484793034 -2.758656879196657 1.3825424435811797
H 0.27463417585030003 -3.756411425986839 1.609343381086559
H 1.5184871326597358 -2.5110942111539556 1.9558640357087866
H 0.8136015556815143 -2.6336705787017234 0.31956256197326655
H -1.6287543052882336 -2.224463571331609 -2.596123515886731
Rh -1.0742874828259963 0.4596023312117952 -0.11626509483613405
I -1.4196718484125552 2.6672428442355143 1.4158750534707114
I -0.9381720813842489 -1.35643412389379 1.9461611276788209
O 0.33655585197174287 -1.278739861787985 -1.9181548078788206
C -0.7502714752168685 -0.9471068853331366 -1.4348285393872555
O -1.4981250833076076 1.5787550220219746 -2.7362837068308306
C -0.7890551349937928 1.543156779334492 -1.730177562505935
