23
## STRUCTURE-ID: 645bd3f61873b333712fb208 ; CHARGE = -1; SPIN = 1
C -2.3134801812984533 -1.8609089842180098 1.3342521274200245
O -3.294743404984895 -2.51067168749665 1.2942579524173141
H -0.567234608262108 3.007172224584334 0.08296126571813545
I -0.19660331041887288 2.962560580487982 -1.449949579707161
O 1.552212640918968 -1.757420329676227 3.459641132093904
C -0.4680303306771499 5.171995635834916 -1.6689410189665168
H -1.5109864796437704 5.394086779375158 -1.4590696771017324
H -0.20948279019862973 5.403568275530395 -2.700352394697946
H 0.21027923884006777 5.652333980870108 -0.9685245055996237
H 2.49979933650675 -1.918027552540804 3.6332380849928687
O -0.3261391928828761 -4.162364507462666 2.2540414423004966
C 0.5389247563493389 0.059932173688719226 -3.1293281971541895
H -0.3364423352698901 0.5209710328957124 -3.5713024266875624
H 0.7393085785817938 -0.9022781621244096 -3.5819810863857287
H 1.4067505618987353 0.7052062270999211 -3.195530348314669
H -0.126617344820393 -5.073107804707931 1.9588227495264323
Rh -0.5604852296934878 -1.3741762337429442 1.5832174482521864
I -0.7532466843988235 1.149684193202694 2.2143880787668255
I 0.09833258918571762 -0.32929420063042864 -0.8948813768918628
O 0.12210081942282418 -3.777211805749819 0.11097908518210274
C -0.20481262496953354 -3.2757632898365734 1.1952687812855762
O 2.3615189176503564 -1.5648629756443353 1.3972562971962377
C 1.3390770781643409 -1.5214235697391527 2.101536166354912
