15
## STRUCTURE-ID: 645be6cd91daae76d8108f18 ; CHARGE = -1; SPIN = 1
C -1.3381088915233987 0.8761613949687408 -1.2021244306014094
O -2.4561599307922224 1.1198281230762162 -1.2024568757212897
I -0.2383694193475814 -1.2319176801825786 -3.2108739644446005
C 0.45828415065143513 -2.130989803980843 0.14734380512779394
H 1.2164505144946314 -2.484273942195758 -0.5526876645208022
H -0.5133547365723801 -2.453786299103021 -0.2284259627629336
H 0.6367802292340937 -2.558259614866194 1.1340697079288238
O -0.31152683480413573 2.3092288958128924 3.1796127329623527
Rh 0.4623601276147579 0.5406429701525193 -1.349628585175342
I 0.7671659074515609 3.113546896148677 -0.5816748485354358
I 3.0362153254336195 0.18320142042277487 -1.7149392904896328
O -1.764466188929791 1.4920941467742685 1.612856242114635
C -1.02599205378363 1.8992662457161194 2.390438954866016
O 0.5829215394173776 -0.032737254138306665 1.3019621193561708
C 0.48780026145566874 -0.6420054986054452 0.27652805989559387
