15
## STRUCTURE-ID: 645bd58291e53637e76006ab ; CHARGE = 0; SPIN = 1
C -3.1766388408130917 0.7360986801992213 0.5637608279252821
O -4.280704134212371 0.8658883541461994 0.8315920939501997
I -1.961904863911328 -2.0938489817248596 -0.04984324626495463
C 2.78160244826242 -1.0419843187697473 0.22214273189795603
H 3.57679076744928 -0.5263200218479902 0.7612380754326148
H 2.9440288860238093 -0.9866851442343577 -0.8541830965664996
H 2.808487006057814 -2.084295242350296 0.5485401892589173
H -1.431065980458253 -0.7267534724012049 -3.4393094586935606
Rh -1.4188254973794066 0.44768083473575293 0.14190856458263165
I -1.2160791745162853 0.7897993496372294 -3.0622275260683507
I 1.0064520802059176 -0.3709374148072432 2.6894753109480765
O 0.6392585584983063 -0.05561107941157594 -0.19080746339148752
C 1.479121196483561 -0.46769833328603494 0.5586902141773494
O -0.7501960928809995 3.3002115171080586 0.7689724739540229
C -1.0003263588093738 2.214455273006861 0.5100503088577771
