20
## STRUCTURE-ID: 645bc5b97e49891fd6315fa4 ; CHARGE = -1; SPIN = 1
C -1.8788842004027586 -1.4476570107312194 1.796045941076138
O -2.8762128399475793 -1.9041627312991924 2.1396587331921557
I 0.1564933685685103 2.016840067255341 3.030679765536449
C -1.446236766867571 -1.9657127375188739 -1.493162638123437
H -1.499978659244455 -1.9423644282641475 -2.581348574479835
H -1.0476672856298421 -2.9360298204283253 -1.1967891206114991
H -2.4403422344313372 -1.8256752976905701 -1.0742595006263889
O 2.9837555708839307 0.39449805595361553 -0.5296560186271927
C 1.3393979978293933 2.724391147147169 -0.05855547601636075
H 1.6137975115709569 3.537105314088324 0.6062051390616504
H 0.28272762718938743 2.768659894930758 -0.30957983351494933
H 1.953427477214789 2.7119840546659737 -0.9499767958576708
H 2.51979527463299 -0.1671557235274358 -1.1536825679639258
Rh -0.2886342871674231 -0.6755122487578632 1.2968998405862266
I 1.380635150823302 -2.010553166215308 2.8885353017943096
I 1.7374980207907234 0.8701051456290005 0.9043394179830411
O -1.6000015088523478 1.29508809080559 -0.5266766103183133
C -1.0701910699178716 0.23144379127182904 -0.2755795911302584
O 0.6960092761793869 -0.8298364600156295 -1.441335596408937
C -0.5153884232221498 -0.8454559372991045 -1.0717618155511777
