20
## STRUCTURE-ID: 645bc32cec2ac759c4507c54 ; CHARGE = -1; SPIN = 1
C -1.6927224929687215 -2.5439665357266397 -0.8395507695668682
O -2.097517242762366 -3.513409598936702 -1.298828427963601
I -0.35918828246211343 -0.5185774644327837 -3.715987082059217
C -1.079300756574287 0.29124940504964447 2.9780264865943695
H -2.0364088293089715 0.814934784111932 2.9403984780185968
H -1.2560437107937341 -0.7159697872915821 3.3542577279161683
H -0.40453656917099884 0.8308182150381083 3.64515432252356
O 2.6575197604717875 0.11924796161430566 -0.010761856450338425
C 2.1257893568465214 1.3698838545997798 -2.5322729685783503
H 2.965971301532005 1.7145846582650142 -1.9428979953075238
H 1.3832711729983416 2.149587132826448 -2.6654638876432513
H 2.444126175632811 0.9678073238796365 -3.488454511142365
H 2.2362316962698925 0.5429985350249468 0.7361214958440842
Rh -1.0954675166084866 -1.1021465703551043 0.22038729374123844
I 0.6558653537205842 -2.751540539172553 1.3373677641954664
I 1.2465570595735016 -0.222853646624026 -1.3547090504763986
O -3.145931080708579 1.0476355708764644 -0.14970192736581078
C -2.399783946120974 0.1720462381407817 -0.057595599003414766
O 0.36690200555701385 1.0862950690978173 1.2829991457291894
C -0.5153334551232215 0.26137539401453014 1.5615113609944749
