15
## STRUCTURE-ID: 645bd425960bf374cd108f18 ; CHARGE = 0; SPIN = 1
C -2.6967223258057387 0.3852925140864996 -0.7839774134249748
O -3.8268975254427033 0.30848750034916184 -0.8493828257545982
I -0.1917942799986107 2.058375919459168 3.085455132371311
C 2.2561923276171143 -0.30688814086161736 0.5590452496789939
H 3.1584221067559106 0.2549609199900067 0.30199585630647463
H 2.298437015717146 -1.3025640813202146 0.12347398981054523
H 2.2129130434460107 -0.3779573548752998 1.6529109975961052
H -1.7941077675039256 -2.29548872828914 1.350200424000085
Rh -0.7919990856497232 0.22170409537078392 -0.5704324499755152
I -1.3518264002236453 -0.8432917921392671 1.8920184946786522
I -0.28113521181007495 -2.2277260350383457 -1.6520372170267053
O 0.6704831275107247 1.5532607749228995 0.38438304695623227
C 1.096825085931191 0.46320768980505705 0.12395656276120429
O -0.2866218017144386 1.2249066707200766 -3.3407374698159127
C -0.4721683088292255 0.8837200478202412 -2.2768723781619165
