15
## STRUCTURE-ID: 645bd7852eaf187cd86ee1d6 ; CHARGE = 0; SPIN = 1
C -2.592902179907815 0.5197052095559694 -0.2711769778913443
O -3.7192597608229696 0.44003536837330254 -0.4130387544788398
I -1.1185170721620474 -1.9644562612430367 -1.018351940729659
C 2.2102364425305043 -0.9204417804279721 -0.8808854468568011
H 2.4436149097844737 -1.8518060272142916 -0.35564334827923194
H 3.1219320876926155 -0.3169152226704544 -0.9357449842306732
H 1.869662203147559 -1.1390561824307157 -1.8903965945880994
H -1.5394697969153623 -2.1671049237335516 2.8894297407532434
Rh -0.7134503665412889 0.5464575030601545 -0.24632075712136384
I -1.4902950343429253 -0.6158226647660726 3.1586631359495914
I 0.7317142192154742 1.8894422021449033 -2.20055293551133
O 1.2157220945895555 0.13303249388829747 1.0661644456479382
C 1.245967636558374 -0.1795971225299483 -0.0793964403058331
O -0.8541946645732605 3.3457819183886515 0.7859834673392975
C -0.8107607182529845 2.280745489605096 0.3912673903030109
