15
## STRUCTURE-ID: 645bd7952ea936571a732d4e ; CHARGE = 0; SPIN = 1
C -3.20931845807517 0.8147157629680647 -0.15298454747986365
O -4.324353438363761 1.0012350435335986 -0.32463093295125406
I -1.8824206510913004 -1.8891225881678062 -1.0090151658990194
C 2.783739614196707 -0.7574403651157159 -0.6659855104836342
H 2.921365476948808 -1.2597570881376512 0.29148847161609154
H 3.587962746084583 -0.04487995952229276 -0.8505693102429127
H 2.819397721368589 -1.4895060935315623 -1.4762065594142606
H -1.2738214203967477 -2.3385546817875174 2.6211439209540037
Rh -1.4339815993998384 0.43554440568725433 0.08242266346002017
I -1.2051201799873015 -0.8189651755512329 3.040295183616127
I 1.0521073379127173 1.080962439616003 -2.487461631282881
O 0.6321851716047057 -0.10300935613901072 0.1503472641480579
C 1.486715128665636 -0.08219459174727416 -0.6899507811032336
O -0.8721597703486742 3.270729812445563 0.8727085933340282
C -1.082297679118906 2.1802424354495034 0.5983983417288216
