20
## STRUCTURE-ID: 645be6140d43b903415c0133 ; CHARGE = -1; SPIN = 1
C -2.050795072237296 -0.10302066605859594 1.7353408125661995
O -2.861923687689171 -0.5139280331651122 2.450801242569036
I -2.739001747834758 1.8491376078666373 -0.9643849279073278
C 2.462128428574338 0.7585921396755558 -1.8868999802929056
H 3.051468237769507 1.593617339388174 -2.265636212673727
H 2.5209743230575605 -0.10863646730215487 -2.5442699466899756
H 2.825037333454854 0.4451433926474545 -0.9066592262616375
O 0.5140429091711616 -0.21042145729055023 3.0172690432033247
C -1.8298789186571118 -2.340683265209728 -0.6341456601219289
H -1.7765715076198048 -3.21208232707493 -1.2753525469631717
H -2.7847040330614448 -1.8368587012633282 -0.7384700557801419
H -1.640965550043087 -2.5947817019146635 0.4030571777793971
H 1.3666094128032884 -0.47243290657133746 3.4226030747433778
Rh -0.8595083413330585 0.8537405140615729 0.7185663115773633
I 0.09500533946355462 3.2899288166232554 1.5201049341620092
I -0.2518514251211396 -0.9226878599374492 -1.2950059409069201
O 1.7648337086134436 0.084875849349538 1.195314299098015
C 0.6697877876600096 0.1489899235743937 1.734120971754641
O 0.46638668204527844 2.1483814862032506 -1.9382024576794061
C 1.0589261209839116 1.1431263163979968 -1.7481509121761785
