17
## STRUCTURE-ID: 645bbaafc194ce67bf108f0d ; CHARGE = 0; SPIN = 1
C -2.2654131176658785 -1.0596293919573148 0.3988540897018885
H -2.858611242859159 -0.3139926986058566 0.9341337146826293
H -2.7166342259899237 -2.042413912377874 0.5919717459523174
H -2.378958788719275 -0.8513787093982736 -0.668409194465856
O 0.028676811064937087 2.977276545148721 -1.3665551917842484
C 2.0554484128989015 0.9683514633910076 -1.3636492785654064
H 2.374313595009869 2.0023917787688377 -1.2880953658418584
H 2.170903197616703 0.5690936897264347 -2.3667281345007596
H 2.5434294718497066 0.34499926940689235 -0.6226659589519331
H -0.268272404762294 3.142672877360292 -2.2700200957019616
Rh -0.265767687206568 -1.2039396974529375 0.9647031853079425
I 0.3754509571869591 -2.1516012130910784 -1.3822583068636127
I -0.027350288944517142 0.9979217942041988 -0.9037470699909671
O -1.2779819730053863 -0.08494744964960664 3.549191265524654
C -0.8742483228286333 -0.5211870732025522 2.5678036155779993
O 1.6307117361521344 -1.905478072275678 1.85905427779718
C 1.7543038702024216 -0.868139199995232 1.3664167021219826
