21
## STRUCTURE-ID: 645be89c6fe66822a9108f0a ; CHARGE = 0; SPIN = 1
C -2.9605721760899133 -0.9954222296808448 0.9133627610631327
O -4.1001574982438935 -0.9058817646282845 0.8475853395880986
H -0.8809740647300718 -4.634930311826617 1.0057477428564043
I -0.7325658549413543 -3.7413475072064344 2.2953817603672717
C 1.9667800068074417 -1.4480783564657087 0.9942814206012368
H 1.8388473612538043 -1.5912714601420304 2.065942681479561
H 1.9397541390386062 -2.432365406351718 0.5209549829176433
H 2.928847613790951 -0.9830641026863933 0.778096329407419
O -1.3152928071032168 2.6163762784466837 -2.821531698553049
C 1.114619214461877 2.9057542421948503 -1.399801445744885
H 0.7974161577313045 3.6880840240597395 -2.0765048176762866
H 2.0956847799921565 2.5189228926614224 -1.6441974511716217
H 1.0611580050670328 3.2216826547491997 -0.3656780796700502
H -1.830729666124604 2.1710050828815546 -3.4996471458667457
Rh -1.0865644446420555 -0.9186007737906393 0.7896188116109752
I -1.1739588129575491 -2.0892510961817825 -1.589174810149207
I -0.2726075882758787 1.334822787798506 -1.689738569236105
O -0.6352178173382881 1.2794721442615729 2.769920659102886
C -0.8349550246460051 0.3801854441034794 2.0814247267889088
O 1.236610963868518 0.2594851382801729 -0.3916488274677144
C 0.8438775130811447 -0.6355776804767183 0.4156056297521605
