13
## STRUCTURE-ID: 645bb8d7be276d6aab6df3a6 ; CHARGE = -1; SPIN = 1
I -1.7338115298006944 -2.677100510229804 -0.2710238039237071
C -1.402925133218581 0.7327687634024087 0.27860596145633654
H -2.020318616106319 0.8308166804118585 -0.620418639797986
H -0.9794123304511202 1.7100825690566968 0.530762642679535
H -2.051998573424367 0.42422424951905496 1.1009104054050787
O 1.3667716920075463 1.174884423726223 -1.6591217407869692
Rh 0.10158781999765491 -0.6875555120960839 -0.1437790349499115
I 2.320319783435544 -2.139990412274728 -0.8271532856080629
I 0.09790033418032659 -0.0659263603193805 -2.864077393195653
O 0.6222965065376699 -0.8371156017024334 2.768528599414029
C 0.4101975611390889 -0.7621387317247375 1.6485531206605444
O 1.9470972793263392 1.441175857645444 0.45933967692860184
C 1.3222952063769098 0.85587458458548 -0.4011265082818354
