20
## STRUCTURE-ID: 645bda72b744a1280f5a4840 ; CHARGE = -1; SPIN = 1
C -2.4427934670342037 -0.4990948072335962 0.8358293931781832
O -3.6308957864458633 -0.4897070600578365 1.0822638961610627
I -1.4163792836026472 -0.20608256681157835 3.891943644279699
C 0.5306952971564786 -1.5513121845684952 0.24927255485028202
H 0.7905924847064068 -2.598854813006577 0.07673006021599825
H 0.3689343171916747 -1.4078063159733176 1.3298350890773962
H 1.368458766136676 -0.9424892630681044 -0.09194974437118511
O 0.6070175731099376 -1.5871420784805965 -2.4469411807524053
C 2.1241348123601957 3.142989836284701 0.5268434148882922
H 2.4148286930420535 4.131376004857074 0.8604514172136251
H 1.442263472196416 3.192505416222182 -0.3163337629553786
H 2.9896010881507564 2.5341681583353766 0.2953203133580679
H 0.6374997628328316 -1.755576252574408 -3.40813291351602
Rh -1.0009083042068976 0.6242028259158381 1.3832199763259942
I -0.917346735058419 1.3165450844465525 -1.1716338369263557
I 1.0609162748329855 2.1887806343435807 2.174176495850396
O -1.6082946129844293 -1.812958277065159 -2.681423546113938
C -0.6390600927855166 -1.5754630474292286 -1.988636072360331
O -1.965989080914572 -1.476913766267922 -0.05495239276970936
C -0.7132751786840273 -1.2271675278685261 -0.545882805633664
