23
## STRUCTURE-ID: 645bcfb9e6352d60566006a0 ; CHARGE = -1; SPIN = 1
C -3.08881510775479 -0.27388782484883817 0.6915638269417638
O -3.7090387644592115 -0.4294877285796822 -0.2841247785406217
H 2.0616975413237872 -0.49286008782618185 2.657420557339043
I 1.9366765737740534 -0.5570974008607416 1.0596245740524612
O 0.5283382303568701 -1.4698806021507536 -1.3825868420947796
C 4.224288540387354 -0.7052233212079861 1.3158063020710584
H 4.642749583517784 -0.8156640987112267 0.3218849264051026
H 4.420437172318681 -1.5763749629392263 1.9331627133444969
H 4.5395713600664696 0.22300800846032623 1.7806126753690537
H 0.6392388824930398 -1.7492732516704768 -2.3122358798813636
O -0.4335417747370003 3.8525072735615757 -1.1376959804177924
C -2.0101287970305983 1.7722985148613362 -1.6742184813736583
H -2.896771456591042 2.299900503837481 -1.341073427396031
H -2.2615991403852798 0.7616696659786408 -1.9742137425120505
H -1.5395485727225529 2.3157712983747807 -2.479983490944653
H 0.1526058146711295 4.433483766947898 -0.6521517290796208
Rh -0.9867902341223201 -0.7325076381153699 0.8776886220564545
I -0.6851502155633847 0.37802970191231144 3.2775656015291896
I -0.6573252022643584 1.7077225330746046 -0.0850888824578198
O -1.6360944210616237 -1.435521353899052 -1.885814515947078
C -0.7698706808479893 -1.2777235917395449 -1.026513028697669
O -1.3425305518932327 -3.6819238785597714 1.1238895106308084
C -1.1283987794757435 -2.5469655259000565 1.1964814696037602
