15
## STRUCTURE-ID: 645be9776d817d076d5c3533 ; CHARGE = -1; SPIN = 1
C -1.6200767342305682 -0.6881722758273167 1.1042276640902293
O -2.366480373707124 -0.6433732184818604 1.9704381670344182
I -1.8499390965987954 -1.2582486778217006 -2.2251442639090837
C 0.3003602105982313 1.8792176987829357 -1.4149853019680327
H -0.1512398522179089 2.8680676721484946 -1.490850224546817
H 0.0953855985421612 1.3014442754356852 -2.3156254574668695
H 1.382560579704146 1.9928202151057606 -1.3201775026864082
O 0.9696953812397394 -2.0783223863687037 2.016889386677666
Rh -0.24573134308321404 -0.7969956401544569 -0.12636708140347055
I 2.084813623759249 -1.2006234798657036 -1.26771477213468
I 0.04561832684791705 -3.667572175441315 0.7470521320421639
O 1.31350680761534 0.10234858814749553 2.11268390242514
C 0.8453371585636628 -0.8806567589456289 1.5695803362486451
O -0.5980969923623342 1.838031112285523 0.7989484795263048
C -0.20571329467052155 1.2320350510007563 -0.15895546392918664
