20
## STRUCTURE-ID: 645bde80f128374131732d34 ; CHARGE = -1; SPIN = 1
C -1.5606088451324465 -1.63089543072317 0.9281963128745092
O -2.525841746480134 -1.8959786057781545 1.4760735569488777
I -1.2315795977828896 -2.4434650531790267 -2.192194747245345
C 1.3099212475490563 -1.4684771526241263 2.60172417162077
H 0.4710229596406186 -1.4918972785225273 3.299061169490609
H 2.185744217282934 -1.0913498402462667 3.1293476759022036
H 1.4871364106558282 -2.479603009202866 2.234631697974408
O -1.5025471880375378 3.170492562651436 -1.2558451418399124
C 0.04411029491809875 1.3890479714645985 -2.574893687862912
H 0.2520313565711508 0.3854698461481962 -2.9248337774342006
H 0.9626208375216663 1.9493292251486116 -2.4497017605741207
H -0.6219164629091589 1.8997605753331872 -3.2572382070946158
H -2.0374767191546708 3.59012648052469 -0.5739105266369808
Rh -0.04380758898505844 -1.27624438504888 -0.11428429225875023
I -2.6033831769947358 1.880884794947617 1.7781077855635776
I -0.9335360544760216 1.267067693974996 -0.699114548820929
O 2.6009000597885823 -0.8759994055133252 -1.4840131645144492
C 1.5835766930006354 -1.036724324991185 -0.9748510089553516
O 1.229132356426509 0.667712273015358 1.5654429678951158
C 0.9345009465975772 -0.5092569373791587 1.4882955249674616
