15
## STRUCTURE-ID: 645be2c1efac634e8f51c314 ; CHARGE = -1; SPIN = 1
C -3.2713750820661116 -0.27388306081246977 0.6452047425407023
O -4.2991832515113835 -0.7215966599295962 0.8525164420854368
I -2.568725833534096 2.8209518763813213 0.3992625427468868
C 2.620722189335697 0.31332914588948235 -0.5485036997942552
H 3.240631002878147 -0.4209215823790141 -0.036775425835134795
H 2.9084561592513816 1.3364790653041936 -0.3182151475330592
H 2.743537301065315 0.13819604484618153 -1.6207363540058592
O 1.4874661290829774 -2.3243008949834634 -0.14035325997645315
Rh -1.5941262546742203 0.3728915792416653 0.3141238002710759
I -1.9874788141224078 0.19179875761689497 -2.319775408821151
I -1.0278382230717447 0.39982516633934984 2.921904308039472
O -0.5396888129232301 -1.4765625536589462 0.19303806849429697
C 0.7071848474185728 -1.3898356909666802 -0.04745927839700613
O 0.3723228855537673 0.9634634764098359 -0.07607241174910934
C 1.2080957573173274 0.07016533070128474 -0.21815891806584248
