21
## STRUCTURE-ID: 645bec81f4ecf452ec554ee4 ; CHARGE = 0; SPIN = 1
C -3.079153579361491 0.4829435895189267 0.3013987619493291
O -3.8399303538419116 -0.0414391745694749 0.9739794021977248
H -1.525092363216669 3.219037249554131 -2.5833798654876454
I -1.0242253198326958 3.1298850015543684 -1.0701175690645186
C -0.42159679567224856 -0.04429185683859928 2.639785707881818
H -0.19945458532545218 0.46864555361967547 3.5757041016570965
H -1.3300232198930169 -0.6361873604169028 2.748646636137844
H 0.3995041905070232 -0.7206445328729643 2.400029785330088
O 3.675352291686264 0.4126695765829592 -1.3139021798509134
C 1.814360667233534 -1.589963969386357 -1.3048527294683252
H 1.0738796397866497 -1.8697321729865994 -2.0454256215284947
H 1.7093071199125207 -2.1669268160878077 -0.39392930634408724
H 2.817021792722449 -1.6698611375224803 -1.7039119025694032
H 4.062460681680162 1.2891880874270831 -1.2940158058559037
Rh -1.1687950873966972 0.41789231059894916 -0.33492935608095054
I -1.611353008479215 -0.33022360533149414 -2.9716380410974725
I 1.5620315048949398 0.4686565786180476 -0.8525703896130836
O -0.32153901313934335 2.1366221511599517 1.6917373425469222
C -0.5655272580874555 0.968125289014787 1.5413043761347425
O -1.0151003737042343 -2.531630467892112 0.04160640743465552
C -1.012126930473123 -1.3927642937440765 -0.045519754309442266
