15
## STRUCTURE-ID: 645bdf840470440310602454 ; CHARGE = -1; SPIN = 1
C -2.736722905373306 0.371478261441958 0.268916039564913
O -3.819591095085033 0.07648511935020484 0.47778467787136236
I -1.437580472526506 -1.7406734906026042 -1.725753135546412
O 2.09143477961075 -1.7285369955670364 -1.6298731105464743
C -0.3982026278799294 2.0897440456293297 0.8292011853381264
H 0.5952243263319382 2.2431538070506543 1.2446077145162096
H -1.163726899805137 2.6158077070780315 1.3953628877769315
H 2.408142367264868 -2.6379716531462445 -1.800198980104001
Rh -0.8272131315582573 0.25475669808234735 0.02620059599469782
I -0.4259669018401895 2.729345124504771 -1.2144547438082625
I -0.5696908695101242 -0.8259686063118187 2.446651077493375
O 1.9784773037816352 0.7249763435896535 -0.15406397932400195
C 1.1225818569772887 -0.14285093328336554 -0.1816526328122697
O 1.5837500916969178 -2.4488282569390294 0.42916659888011893
C 1.5990841779150848 -1.580917170876845 -0.41189419529428534
