17
## STRUCTURE-ID: 645bc00980f1095e7632ebaa ; CHARGE = -1; SPIN = 1
C -1.1608921968433492 2.450516711406613 -1.2207297233549022
O -1.9943527284177571 3.223301988122649 -1.3868101964802737
Rh 0.3862864092209222 1.4009177594434898 -1.0541128549357706
I -0.12155958456189844 0.08525574323207731 -3.2682839260663905
I -1.77236602689033 1.3333317646210727 2.297005574084048
O 1.77291757652195 2.743357122725492 1.231135954632385
C 1.16591731460644 2.264074744437174 0.37843427154278214
O 3.2069952008986085 0.9256933807429257 -1.522666136588639
C 2.1567598743813976 0.4910933209725642 -1.0549113982353002
H -0.35386797508121237 -2.185288987726509 -0.5479092783251953
I -0.7459078935741263 -0.8661879012571785 0.320968947547181
O 2.180214329605405 -0.7634580165374546 -0.5147139852337904
C -1.825276073375222 -2.3239548979669147 1.594084095041278
H -2.456867729649126 -2.913665971394013 0.9393486352922193
H -2.4158636462043086 -1.7552181664968425 2.3046364648273023
H -1.0841569515887874 -2.931173156895492 2.101495982206218
H 3.0620201009513996 -1.1785954374296435 -0.5969724259531326
