15
## STRUCTURE-ID: 645be0013318f61f71014efa ; CHARGE = 0; SPIN = 1
C -1.9951933161356548 -1.2667143078733232 0.2497915789323335
O -3.044237258275823 -0.840099131460881 0.3979513579710309
I 1.5367791978540049 0.3445077061843184 1.0798610072619481
C 0.31556909444843645 3.1054902727584524 0.37826415611936426
H -0.45103135336107075 3.724244753661938 -0.08733908754513862
H 1.2987535347067194 3.3303285499945288 -0.037996891847381184
H 0.378688927739811 3.3136722394061615 1.4474931260418813
H 2.6368283647426414 -3.4733708139769464 -1.3953885775825043
Rh -0.3176100150231197 -2.018114889350706 0.09480557255046475
I 1.7631791771694476 -3.7274155773952193 -0.08864502796841016
I -0.797663454678905 -2.9383909285661085 2.5279446851261067
O -0.884240354974289 1.1469606822452503 -0.38408724681842565
C 0.004579146663627966 1.696336812550395 0.16935861558591372
O -0.22668807475760247 -0.9830145069671307 -2.7060965986404932
C -0.21771361611823023 -1.4144208612107136 -1.6459166691866645
