15
## STRUCTURE-ID: 645bdfb4c3388e03695c0136 ; CHARGE = 0; SPIN = 1
C -1.801680579759735 0.07158887880014415 0.7297513118907056
O -2.6823785816379697 0.7590040876387836 0.9992398190333603
I 0.6286947843423363 -0.6525514859116732 2.6706541152437335
C 0.6796863550944816 2.0296900952615453 0.11174311035618095
H 1.567355819251157 2.3722852034234245 -0.4414364151572649
H 1.0146468604206016 1.5366611091291715 1.0353763693598752
H 0.08332287138846817 2.9036176246304795 0.40901171009581194
H 3.2113652407650193 -0.902331477114513 0.08615645637413677
Rh -0.6171467496402422 -1.3179376744491484 0.45072356876634617
I 2.261237351025848 -1.010645467382171 -1.173295862216432
I -0.07741761635588403 -3.942067002980299 0.6975905689541201
O -0.6129657885801345 1.0515944199019405 -1.7568053394699052
C -0.09219015243921261 1.247117840575783 -0.7527294703631686
O -2.060055453299066 -2.2780507762909674 -1.9886160576107512
C -1.5024743605756714 -1.8679753752324988 -1.0773638852567433
