20
## STRUCTURE-ID: 645bc097b322cc769e6df397 ; CHARGE = -1; SPIN = 1
C -3.2305835128999005 0.17683275801724274 0.278472504066013
O -4.113130539635189 -0.002408430325035701 0.9951884954385198
I -0.23283546683338124 1.3874808319267573 -2.8231851587946823
C 2.9055216426221486 -0.8876255989875468 -1.471383085039719
H 3.683115995975956 -0.3140785358718543 -1.9697540393762474
H 3.3240066591528903 -1.7792279100583532 -1.0058371401056645
H 2.1500006754527843 -1.2226717045144002 -2.179593947449503
O -1.629882442877952 -1.4154895102566016 1.3608888755442026
C 0.3956503458367205 0.361649898599516 1.9481697048058273
H 0.7356611824089235 -0.20146725018223 2.807331597425477
H -0.6042647264445518 0.7409662106490573 2.112848040839692
H 1.0923127678950333 1.147051765477718 1.6785673707100617
H -1.9045062420014764 -2.327904157223307 1.2672451287137778
Rh -1.94885858671985 0.6092590534012368 -0.9715233121382314
I -2.818769738353962 -1.4595557949422053 -2.358257175268352
I 0.2996694145894862 -0.9825648595579431 0.305289763021162
O -1.3693815291924318 3.1525992188437235 0.4726122417142015
C -1.5806837024792348 2.169276872471593 -0.09615358544035109
O 2.59154110828806 0.9433094995020355 0.06809710472074657
C 2.2554166952157746 -0.09543235696949864 -0.4190233833868965
