14
## STRUCTURE-ID: 645bbbb2e958cf2e5b0fad20 ; CHARGE = -1; SPIN = 1
C -3.0271403082478145 -0.3786440526781264 0.033577163514647235
O -4.167397432164602 -0.34570018184919477 0.15661231278837265
Rh -1.1659760854766432 -0.13312560562145404 -0.1859489187499197
I 0.36911681106725946 -1.8350520452969326 1.5858071171528443
I -1.5618520963795302 1.611307427235821 1.7953824509146528
O 1.7141044299302646 -0.9065809941769151 -0.9746294673085454
C 1.3802327805183123 -0.3336623722827227 0.017320812944178043
O -0.9933076402691395 -1.993616531101117 -2.5048274375457673
C -1.0658037941325336 -1.2971216142217097 -1.595470186132867
I -0.22209386277326076 1.8261277941407572 -1.934989558342578
C 2.0420514988899936 0.7529358262587216 0.7652710345845644
H 2.884191766584069 0.3042903995276718 1.297687222098985
H 2.417218465346682 1.4875056836735159 0.05117364645802773
H 1.3966554671069518 1.2413362663916812 1.4930338076233851
