10
## STRUCTURE-ID: 645d0a1dd46db44e65555ada ; CHARGE = 0; SPIN = 1
H -1.8533978180764294 -0.779111759321853 0.8710569095038948
O -1.3452681643238324 -0.12481108604298938 0.34041748794213134
H -1.529297320091218 -0.27141096541178317 -0.6334516729924596
I -0.10026623533761077 -1.4338586814246521 -2.332631264091205
O 0.5042882436108246 -1.3452580457227163 1.0917348077398112
C 0.2118208503430042 -0.3911029572448247 0.4672356927881082
C 0.8950034147363854 0.849483297806003 0.09876318532641011
H 0.4158274694389129 1.360041011526517 -0.7293826884893057
H 0.8702533936939079 1.502870493036432 0.9735702226333126
H 1.9310361660060513 0.6331586927998606 -0.1473126803607075
