10
## STRUCTURE-ID: 645d0a207591ca62336b74ea ; CHARGE = 0; SPIN = 1
H -1.5087079365478147 -0.590613208055098 0.43697476651645806
O -1.359451750764472 0.07038957643860519 -0.3009393594523425
H -1.8990436028566215 -0.1858729526056205 -1.0824684750692826
I -0.033808048353467665 -2.4657453255768327 1.185719567479709
O 0.44476432729134524 -0.5350011594168432 -1.6646774830263493
C 0.18954515932438487 -0.07485703290478622 -0.6116515265626922
C 0.9031320535945266 0.7727580308679298 0.34429602089548667
H 1.9395801917133655 0.45272975548805033 0.40873945480526463
H 0.8745194201991687 1.7926262017539103 -0.045360266324527665
H 0.44947018639958497 0.7635861140106679 1.329367300738285
