10
## STRUCTURE-ID: 645d0a1d02bd6f676c4c7052 ; CHARGE = 0; SPIN = 1
H -2.5937571666992136 -0.6004618772170957 0.7505426584893292
O -2.1561743841999075 -0.2914753246687194 -0.047602612163802495
H -2.781172862335898 0.27412444155321625 -0.5074849389078543
I 0.5735023236096949 1.8201123679437545 1.6356052802376566
O 2.029072699873637 1.4504140477590852 -0.8927238312848337
C 1.3790125088538996 0.801626548496506 -0.1466348478669448
C 0.9778818652963331 -0.6038598764386798 -0.19509133106254975
H -0.11351069007495339 -0.6479698002244365 -0.26807293833682116
H 1.433007545069561 -1.0904614520785083 -1.0556945074195248
H 1.2521381606068431 -1.112049075125132 0.7271570683153608
