10
## STRUCTURE-ID: 645d0a1d02bd6f676c4c7055 ; CHARGE = 0; SPIN = 1
H -0.8661654064017567 0.9079720038649154 1.6811940038592197
O -0.8288562014155819 0.8131582124860547 -0.36321619757691626
H -1.446652917745996 1.3178351047204606 -0.9226027299937255
I -0.8104443566749865 0.8591823590758033 3.2557647617696794
O -0.17349538708890702 -0.09942239363122105 -2.2837690693140305
C -0.06850822767010259 -0.020421019190584876 -1.0833757778559436
C 0.8795275646628945 -0.8034114389709985 -0.2325949275609844
H 0.3134158238376045 -1.4294224925104073 0.45421671445291056
H 1.5107878889324737 -1.4231479134019314 -0.8609288751058558
H 1.490391219564359 -0.12232242244208437 0.35531209732563435
