16
opt_min/./Product_3233_0_opt.xyz
  C  2.11852600 -0.50038200  0.18270700
  O  0.85396850 -0.16802340  0.67828177
  C -0.09757531  0.23142129 -0.30642909
  C -1.13695664 -0.89702919 -0.49854095
  C -2.02203569 -1.31397324  0.57450075
  H -1.97713574 -0.61602869  1.42699676
  H -0.66197185 -1.77733661 -0.94623973
  H -1.88414756 -0.56948475 -1.24361803
  C -0.74699513  1.53665104  0.14236568
  H -1.08766498  1.44222630  1.17168693
  H -1.58751228  1.79558331 -0.49816167
  H -0.01616655  2.34386587  0.11124609
  H  0.41473336  0.39330910 -1.26632473
  H  2.58496026  0.34501752 -0.34330886
  H  2.08252606 -1.36035725 -0.50335658
  H  2.72876883 -0.76309166  1.04961571
