10
opt_min/./Product_2487_0_opt.xyz
  O  2.04255900 -0.19636500  0.35776000
  C  0.79584479 -0.23813249 -0.22763788
  H  0.95782555 -0.73182465 -1.20254487
  C  0.08164020  1.06268501 -0.59630027
  N -1.16265435  0.78418425 -0.24657053
  H -1.94154973  1.41560436 -0.37660480
  C -1.28540935 -0.47942621  0.35618419
  H -2.23738730 -0.84773992  0.69482854
  N -0.18815760 -1.08940146  0.44802445
  H  1.99997609  0.30710094  1.17919102
