10
opt_min/./Product_4916_1_opt.xyz
  O -1.30389500  1.78615500  0.16791300
  C -0.54801053  0.85086454  0.08122042
  C  0.89476096  0.80294275 -0.09428608
  H  1.53041226  1.66019909 -0.16476180
  C  1.24892765 -0.49157945 -0.15403939
  H  2.23061469 -0.91798140 -0.28074044
  O  0.24957430 -1.36886906 -0.05017741
  C -0.95279726 -0.63113848  0.11073081
  H -1.41326926 -0.89331365  1.06665846
  H -1.64687373 -0.88759073 -0.69250075
