11
opt_min/./Product_5437_0_opt.xyz
  C  2.03852000  0.30073700  0.38740400
  N  0.81452190  0.54212527  0.01475010
  C -0.28385506 -0.32901317  0.41703616
  O -0.00854017 -1.29696867  1.11264732
  C -1.46854522  0.15284037 -0.11295506
  O -2.65292360 -0.47023774  0.15878146
  H -3.35698817 -0.11690576 -0.39313667
  H -1.50736858  1.04202196 -0.72797561
  H  0.60778316  1.35299272 -0.55695438
  H  2.85348389  0.93058120  0.08107842
  H  2.19601430 -0.56508098  1.00818023
