14
opt_min/./Product_11477_0_opt.xyz
  C -1.11780498  0.29425301  1.76833401
  C -0.36105142  0.42431610  0.46619087
  C -0.58779946  1.59508739 -0.27650957
  N -0.79037395  2.56416460 -0.85944210
  C  0.49135438 -0.51570182  0.01211896
  O  0.74610266 -1.65722622  0.69167664
  H  0.24133065 -1.68056607  1.51536546
  C  1.25788220 -0.41603976 -1.26523776
  H  0.90638770  0.42007457 -1.86261362
  H  2.31675561 -0.27730459 -1.04730264
  H  1.15394594 -1.34609039 -1.82112349
  H -0.43176726  0.25598975  2.61729730
  H -1.73479585 -0.60719186  1.77363755
  H -1.77472695  1.14968273  1.90028064
