16
opt_min/./Product_11_0_opt.xyz
  C -1.10691300 -0.93856800  0.73893100
  H -0.34387643 -1.24364743  1.44858453
  H -1.81665783 -1.75668159  0.64262084
  C -1.78067199  0.34589089  1.16373658
  C -1.21336073  1.01734486 -0.06243935
  H -0.49744712  1.78152316  0.23026174
  H -1.96286137  1.49391983 -0.68976527
  C -0.60092687 -0.30270932 -0.57108203
  C  0.90099460 -0.33422882 -0.85051571
  C  1.76519733  0.30484829  0.24374067
  H  1.25795411  0.30708158  1.20442559
  H  2.69605282 -0.23890479  0.36801483
  H  2.01968669  1.32922577 -0.00369682
  H  1.07598403  0.17848677 -1.79679295
  H  1.19524684 -1.37662054 -0.99391295
  H -1.11876259 -0.69489123 -1.44866774
