9
opt_min/./Product_2612_1_opt.xyz
  C  1.33675900 -0.13433100 -0.27376000
  O  2.18274965 -0.25984450  0.56539720
  C -0.11343202 -0.35216653 -0.02732509
  H -0.35916996 -0.77211153  0.94073206
  C -1.12073067  0.48184061 -0.71407139
  H -2.06410119  0.69093989 -0.22664080
  H -0.79198263  1.25184044 -1.40196027
  O -0.88117812 -0.82409567 -1.10460172
  H  1.58742371  0.14724928 -1.31315459
