14
opt_min/./Reactant_2612_0_opt.xyz
  C -1.72002600 -0.41469800 -0.30555400
  C -0.56934593  0.44923848  0.22836572
  O -0.39129549  0.15181044  1.60034649
  H -0.00137974  0.90251026  2.05381102
  C  0.70582226  0.20001633 -0.58235241
  H  0.75342170  0.77645492 -1.50413946
  C  1.97011750 -0.21251059  0.02542666
  H  2.00367903 -0.38848923  1.09192116
  H  2.91033366  0.07258240 -0.43106807
  O  1.18337200 -1.10672466 -0.70513033
  H -0.80743599  1.51487592  0.10752613
  H -2.00245060 -1.12193511  0.46653457
  H -1.40786009 -0.97689559 -1.17941760
  H -2.58340367  0.18650379 -0.56217286
