14
opt_min/./Product_7717_0_opt.xyz
  C  2.53586700  0.35581300  0.40133000
  N  1.51576351 -0.55859332 -0.04469474
  C  0.31285032 -0.33952551  0.18555883
  O -0.31831146  0.68790472  0.84811525
  C -1.62635939  0.09509894  0.56795238
  C -2.65813387  0.81077170 -0.11176610
  H -2.44194645  1.88770071 -0.15424603
  H -2.11099640 -0.20447711  1.51146342
  C -0.94022892 -1.09028130 -0.16025862
  H -1.16926526 -1.17213303 -1.21835614
  H -1.03546508 -2.06126156  0.31710920
  H  3.49752333 -0.12812745  0.24064099
  H  2.50102399  1.28487476 -0.17113625
  H  2.42103483  0.61134873  1.45759449
