17
opt_min/./Product_9815_0_opt.xyz
  C -1.37136500  0.12121600 -0.27834200
  H -1.35241635  0.24061709 -1.36307358
  H -2.40514919  0.20086421  0.06675554
  C -0.85206254 -1.27182078  0.07142571
  H -1.56804736 -2.02634325 -0.27128247
  H -0.72438375 -1.36678893  1.15846157
  O  0.34430763 -1.59584095 -0.59660268
  C  1.54342777 -1.09948044 -0.01298835
  H  1.61995728 -1.41078093  1.04924184
  H  2.33931025 -1.62851720 -0.55010294
  C  1.90152795  0.30951067  0.09851455
  C  0.89629289  1.36077754 -0.11371852
  H  1.29637181  2.31573448  0.25009512
  H  0.91498541  1.41582278 -1.21528000
  C -0.55595902  1.23508307  0.37772913
  H -0.53592204  1.07923009  1.45931373
  H -1.05160505  2.18783437  0.17505237
