16
opt_min/./Product_4632_0_opt.xyz
  C -1.78122000 -0.61189400 -0.28451300
  C -2.93198432  0.01035188 -0.10901785
  H -3.05673137  1.05351092 -0.34372863
  H -3.80196872 -0.49821939  0.27107299
  C -0.53574402  0.03254905 -0.79821490
  C  0.59790199 -0.04418669  0.23956835
  C  1.84067373  0.61502352 -0.26694361
  C  3.00519935  0.00861389 -0.41335065
  H  3.13231752 -1.03132824 -0.15878467
  H  3.87390730  0.52411695 -0.78487509
  H  1.73911092  1.65934670 -0.53313108
  H  0.26503256  0.45971861  1.15124132
  H  0.80310266 -1.08642195  0.48456179
  H -0.73130066  1.07568729 -1.05261687
  H -0.20533704 -0.48031196 -1.70441278
  H -1.69022819 -1.66117210 -0.03498065
