15
opt_min/./Product_8430_0_opt.xyz
  C -0.85091400 -0.16703800  0.93650300
  H -1.64701231 -0.87975914  1.13505627
  H -0.61428282  0.38729286  1.84347428
  C -1.11086385  0.66191711 -0.34374272
  H -2.12893523  0.95485047 -0.59227211
  C -0.16675497  1.83552308 -0.27150143
  O  1.03978180  1.53103507 -0.01652361
  C  1.49134986  0.16949872  0.22174755
  H  2.23470187 -0.05381887 -0.55035850
  H  1.99114000  0.17500314  1.19179583
  C  0.31569623 -0.79156212  0.15647147
  H  0.61258074 -1.81643889  0.38124551
  C -0.45436861 -0.48538224 -1.13547991
  H  0.12594405 -0.20865768 -2.01425137
  H -1.16888905 -1.26184274 -1.39365837
