11
opt_min/./Product_4096_0_opt.xyz
  N -0.93317500 -0.51787400 -0.16335900
  H -1.38381223 -0.81162697 -1.03186214
  H -1.49688495 -0.76480612  0.65528031
  C -0.34078808  0.86347466 -0.19493414
  H -0.88326230  1.79601224 -0.29886264
  C  0.87287578  0.38594074 -1.14470698
  O  1.85408317  0.97602607 -0.11345737
  C  0.83552311  0.48472446  0.70349169
  H  0.92803361  0.60299052  1.78697239
  C  0.54095180 -0.78875704 -0.08967033
  H  1.02686468 -1.75724399 -0.06531413
