11
opt_min/./Product_1614_0_opt.xyz
  N -2.05110700  0.62805700  0.06417700
  C -1.06860188 -0.29632718  0.25272216
  O -1.31668900 -1.43311420  0.60237332
  C  0.28548167  0.18997412 -0.05256113
  C  1.33648848 -0.62829763  0.04995308
  O  2.61395605 -0.32272132 -0.19856544
  H  2.69381660  0.60014916 -0.47706644
  H  1.18919358 -1.65152881  0.36636031
  H  0.40460738  1.22100030 -0.36107333
  H -2.99889425  0.37714461  0.28672012
  H -1.84765372  1.58270695 -0.16743149
