9
opt_min/./Product_1453_1_opt.xyz
  O  1.55420900 -0.06000700  0.67164000
  C  0.44627036  0.28023150 -0.08563538
  H  0.69208916  0.88261512 -0.96506933
  C -0.74039918 -0.60523701 -0.15893264
  H -0.72459735 -1.52015979  0.41359708
  H -1.32532957 -0.62548208 -1.06968403
  N -0.73245728  0.58789625  0.66464209
  H -1.26788135  1.36763892  0.30566889
  H  2.04973390 -0.75093930  0.21931900
