11
opt_min/./Product_5141_0_opt.xyz
  C  1.90655900  0.49128800  0.05724600
  C  0.58377291  0.42480377 -0.04884929
  C -0.15426977 -0.79956275  0.18797202
  N -1.40270443 -0.94050951  0.11030477
  C -2.45221996 -0.14757211 -0.16421153
  O -3.08120221  0.53351031  0.60216356
  H -2.78865591 -0.33368939 -1.21152026
  H  0.42534192 -1.68631059  0.44209044
  H -0.00587284  1.29653984 -0.30389171
  H  2.49398037 -0.37493698  0.31718470
  H  2.44711692  1.40743165 -0.10633072
