16
opt_min/./Product_7635_0_opt.xyz
  C -1.30887000 -1.06097700 -0.39692200
  C -0.49663350  0.19848406 -0.17045668
  C  0.84881182 -0.04706449  0.44461651
  H  0.78801364 -0.51847454  1.42743348
  C  2.02028500 -0.37341878 -0.40663604
  H  2.75664214 -1.07839982 -0.03420498
  H  1.88459960 -0.37959561 -1.48044475
  N  1.88835768  0.92566703  0.20586773
  H  2.50182071  1.08530075  1.00044033
  C -1.20295112  1.47598386  0.18394385
  H -0.69427072  2.17147363  0.83719797
  H -2.28086289  1.49353830  0.28465435
  C -0.65329625  1.29758123 -1.17499068
  H -2.23937641 -0.82458306 -0.90589655
  H -0.74510201 -1.77514890 -0.99579227
  H -1.54040164 -1.52489846  0.56369155
