8
opt_min/./Product_357_0_opt.xyz
  N  1.77665400  0.35091815 -0.51309661
  N  17.51719582 -2.62164124 -6.97887562
  N -2.00304650 -6.13213960  3.76965377
  C -3.32428004  8.12388961  4.21140431
  C  1.02452307 -2.89942857 -13.83672569
  H -22.50013263 -4.78064825  12.36259834
  H  15.61663586  0.40362800  1.54780726
  H  2.45711774 -3.93011195  3.08835515
