17
opt_min/./Product_6454_0_opt.xyz
  C -2.53401000  0.26737400  0.91618600
  O -1.71214363 -0.86452374  0.77148152
  C -0.86254589 -0.82909030 -0.35912170
  C  0.23050840  0.19281655 -0.26598942
  C  1.50981389 -0.11784554 -0.11985184
  O  2.48594726  0.82702851 -0.06582882
  C  3.78357917  0.35585153  0.19969760
  H  4.44679244  1.21748930  0.12786929
  H  4.09183616 -0.40139835 -0.53026453
  H  3.85122427 -0.07057364  1.20735266
  H  1.84941431 -1.14759686 -0.06426541
  H -0.06018049  1.23151711 -0.31436765
  H -1.46090507 -0.63754269 -1.26438801
  H -0.43558238 -1.83521419 -0.41277259
  H -3.10565666  0.46261385  0.00073332
  H -1.95251923  1.16153619  1.16721676
  H -3.22008775  0.04244436  1.73271767
