15
opt_min/./Product_9117_0_opt.xyz
  C -1.63252600 -0.30097300 -0.28374900
  C -0.31563756  0.13989309  0.35017517
  O -0.52888636  0.77604959  1.58733860
  H -0.92718463  1.64011795  1.43138105
  C  0.59726889  0.93065477 -0.61019192
  O  0.47924919  1.99199273 -1.14913459
  C  1.68180073 -0.12321948 -0.54110673
  H  2.60478981  0.27249009 -0.12571566
  H  1.91615178 -0.60062842 -1.48748736
  C  0.80467898 -0.92930936  0.43853288
  H  0.50569253 -1.90868222  0.08014224
  H  1.21670335 -1.02399545  1.43678943
  H -2.21609992 -0.85713800  0.44101422
  H -1.45427753 -0.91155710 -1.16486122
  H -2.18637514  0.58189666 -0.60012913
