8
opt_min/./Product_116_0_opt.xyz
  O  2.43503600 -0.47521400 -0.22882400
  C  1.30011295 -0.18358292 -0.10127877
  O  0.86677325  1.12434369  0.28142030
  C -0.40815370  1.21350538  0.35805633
  C -0.93103752 -0.13962026 -0.00169123
  H -1.51171457 -0.57859542  0.81374662
  H -1.56848155 -0.08973043 -0.88929680
  O  0.22729883 -0.92805631 -0.26672204
