16
opt_min/./Product_10302_0_opt.xyz
  C -1.75867000  0.49049400 -0.30895000
  N -0.69283728 -0.46708932 -0.16331833
  C  0.06702995 -0.57514742  1.10780477
  H -0.42747252 -1.05402300  1.94992831
  C  1.13399889 -1.30021230  0.24038219
  H  0.82614631 -2.31570324  0.01553432
  H  2.16916324 -1.25434470  0.56641675
  C  0.62926995 -0.26851651 -0.77349080
  H  0.70956404 -0.40108995 -1.85135046
  C  1.14388510  1.02221513 -0.10103193
  H  2.22639628  1.16818137 -0.14815502
  H  0.68659473  1.94023298 -0.46966104
  C  0.76749035  0.73031949  1.31714705
  H -1.46265047  1.54167791 -0.19113389
  H -2.51745040  0.26438190  0.43733166
  H -2.18718680  0.36244695 -1.30315319
