10
opt_min/./Product_3684_0_opt.xyz
  C -1.22494000  0.57034300  0.01537400
  H -2.15976682  1.09589643  0.02461146
  C  0.01912151  1.06395884 -0.02988916
  H  0.35954172  2.07784959 -0.06656117
  C  0.92474134 -0.10800093 -0.02052123
  N  2.17980051 -0.04555143 -0.05414849
  H  2.63754505 -0.95449945 -0.04066545
  N  0.13400676 -1.28644312  0.03214255
  C -1.08032378 -0.89294343  0.05213768
  H -1.90320875 -1.58745483  0.09224653
