18
opt_min/./Reactant_998_0_opt.xyz
  C  1.80323200 -0.37641100 -1.03675000
  C  0.78720570 -0.66095518  0.04207412
  H  0.76488793 -1.70939376  0.30658488
  C  0.59538153  0.29833199  1.18206540
  H  0.51895379 -0.09945309  2.18197943
  H  1.10684367  1.24513899  1.13204007
  C -0.53057049  0.06074650  0.21011205
  C -0.92737786  1.20434879 -0.70470854
  H -0.13469895  1.47185111 -1.39616280
  H -1.17419440  2.08907199 -0.12306612
  H -1.80097262  0.94105375 -1.29270841
  C -1.70919071 -0.75448786  0.72547343
  H -1.97492501 -0.45502069  1.73469505
  H -2.57785314 -0.61894247  0.08957660
  H -1.47363323 -1.81452419  0.74164886
  H  1.73368874 -1.11584875 -1.82953141
  H  2.80876852 -0.41848837 -0.62396612
  H  1.66866606  0.60719901 -1.47801906
