17
opt_min/./Product_7035_0_opt.xyz
  C  2.05192700 -0.48793300  0.34055100
  C  0.54857494 -0.22940100  0.34679262
  H  0.15205284 -0.29292613  1.37626620
  C  0.16539077  1.12657294 -0.25482728
  H  0.45989210  1.09960528 -1.30464825
  H  0.70964152  1.93538621  0.23327537
  C -1.35109642  1.29875140 -0.14074568
  H -1.71240641  2.15826221 -0.71159559
  H -1.63622776  1.49466361  0.89961981
  C -2.17618264  0.11555218 -0.45251476
  C -1.46681794 -1.16313837 -0.42598491
  H -1.83527490 -1.83080628 -1.20599266
  H -1.89630987 -1.55428116  0.52176887
  O -0.05758212 -1.25370503 -0.43360937
  H  2.23677373 -1.55437666  0.25280198
  H  2.50480027 -0.13408926  1.25996493
  H  2.52874998  0.00340856 -0.50025186
