13
opt_min/./Product_4569_0_opt.xyz
  C  1.73543800  0.61443400  0.02868500
  C  0.95696778 -0.64555590  0.18349488
  C -0.36116576 -0.73109270  0.00750838
  N -1.10560975  0.35942338 -0.40378670
  C -2.34735662  0.46576669 -0.23790897
  O -3.19455824 -0.34800746  0.41816108
  H -2.72415133 -1.10742335  0.78605756
  H -2.86367218  1.32706747 -0.63673199
  H -0.86099279 -1.69615641  0.13491208
  H  1.50868019 -1.52804618  0.47568778
  H  1.08893166  1.39939356 -0.34985291
  H  2.56224731  0.45827810 -0.66289418
  H  2.15690250  0.91868557  0.98554488
