15
opt_min/./Product_7299_0_opt.xyz
  C -2.35405475  0.75153272  0.02935190
  C -1.16015455 -0.02595056 -0.50391142
  C -0.11093550 -0.26108315  0.56439277
  O -0.21217057  0.10733952  1.70416306
  C  1.07913986 -1.00107995  0.03959719
  C  2.27968519 -0.51766841  0.15538631
  C  3.45343767  0.01460578  0.26060599
  H  3.83242929  0.69402917 -0.48457608
  H  4.08764946 -0.20464328  1.10294495
  H  0.89894759 -1.92891080 -0.48331652
  H -0.67925850  0.50993512 -1.32864873
  H -1.47190989 -1.00034031 -0.89300746
  H -2.02642573  1.70875411  0.43195612
  H -3.07883705  0.92799749 -0.76240407
  H -2.83564883  0.19347468  0.83026926
