13
opt_min/./Product_1297_0_opt.xyz
  N  2.60778400  0.80371000  0.71450300
  C  1.65828306 -0.08343279  0.48699264
  O  0.89978948  0.34703754 -0.55403443
  C -0.18287161 -0.49171173 -0.87474033
  C -1.33247054 -0.35810814  0.12644505
  O -1.93940269  0.90273036 -0.02845297
  H -2.77892267  0.91447943  0.44314708
  H -0.91937996 -0.47180256  1.14022490
  H -2.05171745 -1.16762588 -0.06150706
  H  0.14188991 -1.53805628 -0.89264275
  H -0.52651399 -0.17933905 -1.86379921
  H  2.69989181  1.65966290  0.16966047
  H  3.29044390  0.63092171  1.43196041
