11
opt_min/./Product_4116_0_opt.xyz
  C  2.23993900 -0.18307100  0.28647400
  O  0.96495449 -0.31408991  0.16781282
  C  0.09124549  0.58001788 -0.11372897
  C -1.35618655  0.19278021 -0.22203745
  O -1.49721969 -1.20655089 -0.12032202
  H -2.28761313 -1.42033126  0.38244996
  H -1.75018743  0.53214585 -1.19753464
  H -1.93626285  0.71457814  0.55508457
  H  0.37294207  1.60847781 -0.30571134
  H  2.79358918 -1.07181786  0.51068556
  H  2.73247611  0.76599604  0.14034646
