14
opt_min/./Product_6015_0_opt.xyz
  C  1.89455900 -0.70310500 -0.29479900
  C  0.95822524  0.43664532 -0.17001314
  C -0.10461431  0.24250234  0.80761343
  O -0.69377406  1.39111789  1.34021694
  H -0.53563560  2.12084185  0.72568763
  C -1.01121522 -0.36355493 -0.34842530
  O -2.23637379  0.28129107 -0.41057658
  H -2.36755073  0.74195706  0.43625764
  H -0.51713394 -0.22436267 -1.32556925
  H -1.12782638 -1.43848235 -0.17883373
  H  0.01965444 -0.46241573  1.63482427
  H  2.17735219 -0.86780845 -1.33347911
  H  1.57602170 -1.64004529  0.16853196
  H  2.78578255 -0.32826025  0.20975219
