10
opt_min/./Product_4771_0_opt.xyz
  O -0.08453100  1.00006000  1.06555900
  C -0.22312268  0.18937871  0.20987803
  C -1.52620369 -0.35511977 -0.30410857
  H -1.36709910 -1.14683036 -1.02757923
  H -2.08884502  0.45528872 -0.76185828
  H -2.10503097 -0.72782459  0.53823224
  O  0.82160712 -0.41660364 -0.47575192
  C  2.12400216 -0.14308063 -0.24399099
  O  2.59483406  0.61127897  0.53643703
  H  2.71061198 -0.77364933 -0.93912566
