11
opt_min/./Product_3111_0_opt.xyz
  C  1.86690600 -0.41691100  0.14827900
  C  0.56873786 -0.13547366  0.04989554
  C -0.09283285  1.16792717 -0.01482666
  H  0.41870746  2.11018657  0.00925864
  N -1.35272941  1.06122323 -0.10402479
  C -1.65933183 -0.33115127 -0.10551525
  H -2.18475303 -0.60294484 -1.02676017
  H -2.30541772 -0.57412738  0.74855050
  O -0.43493282 -1.06012986 -0.01467520
  H  2.60071326  0.36304235  0.19158538
  H  2.21534861 -1.43243640  0.18613034
