16
opt_min/./Reactant_4736_0_opt.xyz
  C -2.04212000  0.01019700 -0.10790300
  C -0.66645755 -0.53506771 -0.48640549
  O -0.53649456 -0.66927772 -1.88541001
  H -0.71147498  0.18880789 -2.29271695
  C  0.45022471  0.34860399  0.08877431
  C  1.83179365 -0.25479137 -0.17373739
  O  2.87886497  0.54613368  0.32246495
  H  2.83448483  1.41427797 -0.09495717
  H  1.95575614 -0.42906911 -1.25184209
  H  1.92631603 -1.21265642  0.34333837
  H  0.39635669  1.34156071 -0.37348188
  H  0.30300718  0.46988249  1.16320499
  H -0.55575307 -1.55504090 -0.10278346
  H -2.15972456  1.03357000 -0.46864958
  H -2.16531970  0.00819420  0.97242369
  H -2.82269963 -0.60477015 -0.55206616
