11
opt_min/./Reactant_5385_0_opt.xyz
  N  1.79198700 -0.28179100 -0.06809000
  C  0.44084044 -0.06389205 -0.04644355
  C -0.62846180 -0.94187073 -0.02472182
  H -0.60054269 -2.01145093 -0.03837928
  C -1.75652638 -0.11558277  0.05128401
  H -2.78968506 -0.40448897  0.09540487
  N -1.43193216  1.15907862  0.06067373
  N -0.08384407  1.17967987  0.00555997
  H  0.40361211  2.06225036 -0.02220515
  H  2.10790306 -1.18300903 -0.37633976
  H  2.41116757  0.49408287 -0.21565882
