10
opt_min/./Product_9770_0_opt.xyz
  C  2.52544600  0.23716300  0.13936800
  C  1.25301759 -0.06979956  0.10376821
  C  0.02754781 -0.33962811  0.08085969
  C -1.26501786 -0.62121748  0.07073274
  C -2.28185615  0.39417823  0.31939557
  O -2.08970895  1.54078837  0.63686246
  H -3.31274945  0.00293782  0.18432664
  H -1.60849812 -1.62423318 -0.14003323
  H  2.84562067  1.24429745  0.35742774
  H  3.29402317 -0.49676125 -0.04207627
