18
opt_min/./Product_10240_0_opt.xyz
  C -2.51426100 -0.32559600 -0.65443400
  C -1.08627031 -0.47297175 -1.05814520
  N -0.08013516 -0.10137939 -0.26650002
  C -0.38339354  0.71392631  0.89345934
  H -1.09448430  0.20009863  1.53851016
  H -0.81001902  1.66805798  0.58056994
  H  0.54044532  0.91000803  1.43440736
  C  1.19361726 -0.42546729 -0.47208853
  O  2.20640418  0.26468095  0.18027957
  C  3.17612083 -0.57254653  0.77272687
  H  3.90710096  0.08518364  1.24175730
  H  3.67830185 -1.18716742  0.01688242
  H  2.73828563 -1.23368020  1.53014336
  H  1.45743997 -0.95929955 -1.37475010
  H -0.83674976 -1.11459203 -1.88525772
  H -2.77392156  0.71290254 -0.43773945
  H -3.14888055 -0.66354007 -1.46945507
  H -2.76790796 -0.92190318  0.23167914
