12
opt_min/./Product_7325_0_opt.xyz
  O  0.06783799  0.57854501  2.15919400
  C  0.86374708  0.59351198  1.00983340
  C  0.13351676  0.10333030 -0.22317044
  N -1.05271165 -0.34858947 -0.13253140
  N -1.74981694 -0.75712346 -1.18029575
  H -2.60873014 -1.22841306 -0.97436004
  H -1.34448175 -0.80754161 -2.10555506
  N  0.84352266  0.16422109 -1.38732463
  C  1.44284325  0.18497310 -2.39285188
  H  1.16606896  1.63498083  0.85703656
  H  1.77804779 -0.00561285  1.13102195
  H -0.08540874 -0.32815951  2.43905459
