16
opt_min/./Product_9852_0_opt.xyz
  O  2.24799800  0.36831200  0.36875700
  C  2.12575938 -0.17912493 -1.03083226
  C  0.65574690 -0.01464348 -1.37564668
  C -0.01240863  0.22995469 -0.00132499
  C  0.94609625  1.03141602  0.82083929
  H  0.97811992  2.04805997  0.37250277
  C -1.47984630  0.28369660  0.12387659
  H -1.90849568  0.91205295  0.89224584
  H -2.08782613  0.17868568 -0.76980420
  N -0.73866284 -0.85439627  0.62772473
  H -0.82717973 -1.68858453  0.05388765
  H  0.25309715 -0.88604335 -1.88911519
  H  0.50296996  0.86607397 -2.00438044
  H  2.43060363 -1.22204660 -0.95377113
  H  2.79592106  0.36535150 -1.69547692
  H  2.94699916  1.03687743  0.43820574
