11
opt_min/./Reactant_4112_0_opt.xyz
  C -1.45980900 -0.00214200  0.07964700
  C  0.01778906  0.05030867  0.00782158
  C  0.92244598  1.09415365 -0.00256942
  H  0.74184213  2.14822982  0.03790192
  N  2.16438594  0.58471112 -0.07745725
  N  2.10086681 -0.68811885 -0.10780813
  N  0.81624627 -1.04523444 -0.06672190
  H  0.54431234 -2.01612605 -0.08495379
  H -1.90226148  0.59987175 -0.71162968
  H -1.80298548  0.39379466  1.03507903
  H -1.81487768 -1.02583024 -0.01904703
