12
opt_min/./Product_3900_0_opt.xyz
  C -2.12599800 -0.20398000  0.25796600
  O -0.74976902 -0.46802010  0.30241137
  C  0.08150131  0.62219233  0.10058777
  N  1.38632430  0.42989297  0.11686645
  C  2.07805926 -0.71143176  0.12448044
  H  1.56360907 -1.61636504  0.37975101
  H  3.13571923 -0.64684377  0.29985798
  H  1.92990139  1.27664410 -0.02182520
  H -0.33729142  1.60717943  0.02571760
  H -2.60540584 -0.81931942  1.02338441
  H -2.34809188  0.84782516  0.45561472
  H -2.53352248 -0.47563557 -0.72432780
