9
opt_min/./Product_57_0_opt.xyz
  C -1.58042700  0.63881000 -0.69726600
  O -0.36413524  0.59062261 -0.33473333
  C  0.42359955 -0.45068244 -0.31803003
  C  1.77296643 -0.29818800  0.12400794
  O  2.28644993  0.73144723  0.50967518
  H  2.34993801 -1.24460915  0.09495927
  H  0.02974833 -1.41003898 -0.64102326
  H -2.07639349  1.58983947 -0.63608632
  H -2.12065546 -0.23622214 -1.03609294
