14
opt_min/./Reactant_10524_0_opt.xyz
  C  2.17295700 -0.22423900  0.53930300
  C  0.95170380  0.21302374 -0.22627365
  N  0.87372059  0.93057113 -1.26023941
  H  1.76404799  1.25762787 -1.61780706
  O -0.16470891 -0.27691478  0.34140699
  C -1.38048937  0.06682470 -0.29101305
  C -2.54840938 -0.47750763  0.48847194
  O -2.49114312 -1.15940148  1.46665841
  H -3.52022929 -0.16869831  0.04902408
  H -1.45760614  1.15736372 -0.38772144
  H -1.41434376 -0.33685200 -1.31155533
  H  2.25520430 -1.30688234  0.50349968
  H  2.07393982  0.06533085  1.58125721
  H  3.06797108  0.22348277  0.11626801
