13
opt_min/./Product_2429_0_opt.xyz
  C -1.35172200  0.47821900 -0.41543400
  H -1.39960713 -0.10666282 -1.33315085
  H -1.99906604  1.34994031 -0.49573536
  C  0.11693902  0.78160931  0.03112039
  N  1.09332664  0.41971972 -0.93814309
  C  1.87553055 -0.54362633 -0.77825989
  H  1.91732920 -1.19865144  0.09561070
  H  2.58333534 -0.74929147 -1.57123291
  H  0.28180453  1.84086104  0.25828756
  C -0.19839418 -0.07434096  1.24267270
  H  0.39762149 -0.35185451  2.09472858
  C -1.44760230 -0.30361467  0.86104933
  H -2.27968633 -0.83353095  1.29147280
