13
opt_min/./Product_6841_0_opt.xyz
  N -2.13103200  0.51044300  0.27741300
  C -0.81465759  0.23699166  0.10068430
  C  0.27530903  1.00821214  0.33418605
  H  0.32978456  2.01105218  0.70240559
  C  1.40624624  0.18102364 -0.00663182
  O  2.66908800  0.62005119  0.09295137
  H  3.24436992 -0.10053161 -0.19821787
  N  1.11129141 -1.00274516 -0.41910939
  C -0.32579320 -1.10375528 -0.38686333
  H -0.62695391 -1.89589193  0.30519474
  H -0.69982368 -1.37390795 -1.37699594
  H -2.82435508 -0.12385580 -0.07353950
  H -2.41717915  1.44394748  0.50927680
