14
opt_min/./Product_6925_0_opt.xyz
  N -2.19398290  0.37855972 -0.06205418
  C -0.86474412 -0.00021211  0.20806441
  C  0.24283715  0.87863064  0.76867871
  H  0.27444605  1.53709982  1.60965932
  C  1.15860421  0.31793216 -0.04383487
  N  2.50710077  0.42598671 -0.23440218
  H  3.03119788  0.84023971  0.51956448
  H  2.95239685 -0.37321859 -0.65688833
  C  0.14987537 -0.60713762 -0.68631897
  H  0.09473772 -0.97754241 -1.69412156
  N -0.40307744 -1.38169911  0.44735234
  H -1.07095194 -2.08621400  0.13963481
  H -2.72787282  0.47696209  0.79324805
  H -2.65436082 -0.28270712 -0.67671479
