11
opt_min/./Product_7286_0_opt.xyz
  C  0.43780100  0.68227000  0.47295200
  H  0.90411632  1.31585328  1.20949736
  C  1.19515329 -0.41040966 -0.20105617
  H  1.09361755 -0.55115541 -1.27054513
  H  2.17822352 -0.62792676  0.19653540
  N  0.11379042 -0.75365316  0.67679318
  C -1.12735710 -0.60445309 -0.12216357
  H -1.16669646 -1.20483516 -1.02957201
  H -2.01172027 -0.79835396  0.48529221
  C -0.85347237  0.88717795 -0.24845335
  O -1.49061683  1.83720028 -0.59224688
