12
opt_min/./Product_9753_0_opt.xyz
  O -0.87262100  2.11382700 -0.43035700
  C -0.65582688  0.96949134 -0.20268540
  C -1.48924351 -0.29249832  0.01860002
  H -2.12481733 -0.23758120  0.89547024
  H -2.07373285 -0.58045373 -0.84885702
  C -0.15297167 -1.03179974  0.19066744
  H  0.06908143 -1.76289671 -0.58583502
  H  0.04135632 -1.45843765  1.17251573
  N  0.53041013  0.24463360 -0.02796396
  C  1.85259502  0.57458153 -0.04312269
  O  2.29337910  1.66738146 -0.25064213
  H  2.49112617 -0.31283243  0.13276348
