13
opt_min/./Product_10746_0_opt.xyz
  O -2.19588300  0.48735600  0.36447100
  C -1.35525958 -0.19175818 -0.61901751
  H -1.75701805 -0.30929133 -1.61562781
  C -0.08112427  0.46938310 -0.11159830
  C  1.15821927 -0.35285015 -0.14576811
  C  2.35380635  0.13749231 -0.41540495
  H  3.23106670 -0.48682852 -0.42793029
  H  2.50092663  1.18129614 -0.64060607
  H  1.01194841 -1.39933278  0.08369419
  H  0.09206883  1.49682083 -0.46100186
  C -0.95916298  0.34039643  1.12621454
  H -0.92245370  0.80819507  2.09974698
  C -1.74465690 -0.86504526  0.67322830
