13
opt_min/./Product_2908_0_opt.xyz
  C -1.23222900 -1.23469600 -0.15300400
  N -0.15082197 -0.31325916 -0.06499546
  C  1.29674647 -0.49057010  0.01837203
  H  1.73671978 -0.88443343 -0.89988510
  H  1.61052927 -1.09256663  0.87344086
  C  1.35480334  1.01179424  0.20835584
  H  2.14329250  1.71101883  0.35805729
  C  0.01213850  1.04453419  0.14414310
  O -0.95212093  1.97811868  0.21345096
  H -1.81162890  1.55801226  0.09309791
  H -1.22222425 -1.95083089  0.67919604
  H -1.19509998 -1.80097212 -1.09160103
  H -2.18024803 -0.69319508 -0.11971397
