13
opt_min/./Reactant_2908_0_opt.xyz
  C  1.79203900  0.38021600  0.17481200
  N  0.40867265  0.02903885  0.11286088
  C -0.66795962  0.55557866 -0.70783063
  H -0.89160586  1.60549660 -0.50735976
  H -0.51981390  0.42942005 -1.78226596
  C -1.59662446 -0.46401208 -0.02524903
  H -2.42607876 -0.06450270  0.54530719
  H -1.94549115 -1.25741947 -0.67878358
  C -0.35762391 -0.86909448  0.77736327
  O -0.09798387 -1.65240939  1.64981660
  H  2.29951448  0.15989015 -0.77015410
  H  1.91365766  1.44453307  0.39034687
  H  2.25466220 -0.20588962  0.96415534
