11
opt_min/./Product_11502_0_opt.xyz
  N  2.38054000  0.31034900  0.05514200
  C  1.13430300  0.20891568  0.08290265
  C  0.43669429 -0.93416454 -0.51541587
  H  1.06654176 -1.69637503 -0.95278499
  N -0.81863644 -1.06501137 -0.52980959
  C -1.62050117 -0.02617629  0.06124781
  H -2.33047872 -0.49618802  0.74630305
  H -2.24255965  0.39783125 -0.73853452
  C -0.96987523  1.13358964  0.73710411
  O  0.32262734  1.18205962  0.70073543
  H  2.77201929  1.13343043  0.50360153
