8
opt_min/./Product_5442_0_opt.xyz
  N  1.35712300 -0.71261700 -0.06842400
  C  0.53543064  0.19077996  0.21156641
  C -0.92847803 -0.04078033  0.08023375
  H -1.35850358  0.70003098 -0.59203711
  H -1.12148118 -1.04204545 -0.29398017
  H -1.40056728  0.08647642  1.05729268
  H  0.80748106  1.19376533  0.56875903
  H  2.34167206 -0.48176349  0.04964053
