14
opt_min/./Product_11358_1_opt.xyz
  C  2.13568400 -0.17691200  0.22879300
  C  0.96767820 -0.16821047 -0.38586558
  C -0.35141295  0.11356579  0.28258137
  C -1.34547470 -1.03907646  0.09929613
  H -0.99793995 -1.73615734 -0.65803025
  H -2.30597819 -0.64170746 -0.21886674
  H -1.48337206 -1.58389546  1.02691267
  C -0.88029680  1.41402699 -0.27821577
  O -1.94112023  1.57786854 -0.80876948
  H -0.16300105  2.25320517 -0.16574162
  H -0.16125537  0.29953278  1.34398988
  H  0.90316686 -0.37896115 -1.44515662
  H  2.22304157  0.02914276  1.28235693
  H  3.04721030 -0.39621915 -0.29878831
