15
opt_min/./Product_8917_0_opt.xyz
  C  1.94872800 -0.81494100  0.16680600
  N  0.65613984 -0.50259393  0.06542375
  C  0.05612692  0.68561983 -0.09040272
  N  0.71676578  1.91628322 -0.23952015
  H  0.67402187  2.51115397  0.58539395
  H  1.68689522  1.77562922 -0.49685484
  C -1.42741708  0.52336603 -0.14062906
  H -1.84950531  0.88874523 -1.08396257
  H -1.95440421  1.05349865  0.66249384
  C -1.56414311 -0.95563928 -0.01059948
  H -2.50310234 -1.47416019 -0.00330854
  C -0.35058001 -1.48900631  0.09579223
  H -0.05101406 -2.51522896  0.20655888
  H  2.23143654 -1.84475034  0.19025969
  H  2.69189852 -0.04533833  0.17190451
