14
opt_min/./Reactant_1971_0_opt.xyz
  C -2.10837400  0.06174700  0.55525800
  C -1.13339562 -0.37183806 -0.53566012
  C  0.19416787  0.33864903 -0.36276766
  O  0.35203962  1.53030469 -0.38749636
  O  1.17882247 -0.54993897 -0.17417894
  C  2.49944945 -0.05031506  0.01120108
  H  2.51402861  1.02332738 -0.19162257
  H  2.80506553 -0.23631558  1.04104330
  H  3.15833728 -0.57824050 -0.67759788
  H -1.53336457 -0.10045379 -1.51473246
  H -0.96556791 -1.44780592 -0.50346369
  H -3.05231240 -0.46709579  0.44004137
  H -1.70569526 -0.15810565  1.54131574
  H -2.29614072  1.13152371  0.48650517
