11
opt_min/./Product_2707_0_opt.xyz
  C -0.54744100 -0.52157300 -0.08490600
  C  0.94906651 -0.40102752 -0.04782507
  H  1.44486485 -0.76197667  0.85003899
  N  1.71350400 -0.56778928 -1.33175732
  C  1.63580747  0.59010105 -0.85995857
  H  1.91358373  1.60222650 -1.03273417
  H -0.89656218 -1.39231279 -0.63749438
  C -1.37197675  0.03107116  1.03517655
  H -1.66783832 -0.11649421  2.04452889
  C -1.40632693  0.71783417 -0.06743864
  H -1.74754323  1.54860753 -0.63351338
