10
opt_min/./Product_6148_0_opt.xyz
  N  1.52408800  0.68033300  0.59359200
  C  0.53091125 -0.15923807  0.25704076
  C -0.04104961 -1.29261227 -0.00193805
  H -0.04499902 -2.34604525 -0.10043563
  C -0.93649142 -0.06414410 -0.15934426
  N -1.16030235  0.36750748 -1.45876653
  O -2.21140971  0.96127965 -1.68324395
  H -1.70535060  0.18197562  0.58259933
  H  1.40929093  1.64782047  0.32823415
  H  2.46098909  0.31364512  0.48813190
