15
opt_min/./Product_10877_0_opt.xyz
  C  1.67641800  0.54277400  0.33221100
  C  0.59857404  0.05969693 -0.62926558
  H  0.67446084  0.59872315 -1.58140391
  O  0.82963107 -1.34758883 -0.93225296
  C -0.11169719 -2.14283287 -0.62186824
  C -1.25074271 -1.35773437 -0.02281779
  H -1.45672319 -1.71758320  0.98755369
  H -2.15618167 -1.53024705 -0.60926785
  C -0.79385570  0.07766900 -0.05901201
  C -1.46465497  1.14448965  0.33064072
  H -2.45833391  1.06487394  0.73677801
  H -1.05230895  2.13672597  0.25880531
  H  1.60094171  0.00989525  1.27826688
  H  1.56078437  1.60785867  0.51492281
  H  2.66064485  0.36003717 -0.09314214
