10
opt_min/./Product_6144_0_opt.xyz
  N  2.05553800  0.41371600  0.10004000
  C  0.89646686 -0.02865578 -0.01285372
  C -0.39066090  0.72699273  0.19398535
  H -0.47748388  1.13830485  1.19879037
  H -0.48413241  1.55371840 -0.51058322
  C -1.36097975 -0.37839533 -0.08433399
  H -2.42714420 -0.28233870 -0.04334893
  N -0.80601695 -1.47453956 -0.38321474
  O  0.56217865 -1.32440344 -0.35901704
  H  2.79220310 -0.25722914 -0.08602179
