10
opt_min/./Reactant_6144_0_opt.xyz
  N  1.83664000 -0.14336300  0.08294000
  C  0.47232881 -0.16017131  0.10373753
  C -0.47108255  0.79808396 -0.17482038
  H -0.31310381  1.82403618 -0.42719964
  C -1.68524444  0.09775373 -0.04219459
  H -2.68275113  0.47180426 -0.16914377
  N -1.48997370 -1.15462178  0.25830155
  O -0.13347439 -1.32605081  0.36892788
  H  2.28286074 -0.92341896  0.54123051
  H  2.27905692  0.75166529  0.21618013
