16
opt_min/./Product_11340_0_opt.xyz
  C  1.90862400 -0.30744200  0.02690200
  C  0.43194844 -0.46904216 -0.07604233
  C -0.55963137  0.43036278  0.02831142
  C -0.44983752  1.89246456  0.27475438
  H  0.27390678  2.34792548 -0.40114447
  H -0.12050857  2.09157185  1.29405045
  H -1.41069326  2.37868426  0.12359619
  C -1.85235579 -0.32453019 -0.12993394
  H -2.48358481  0.05380907 -0.93197384
  H -2.44281203 -0.27502642  0.78798430
  C -1.46388983 -1.76323737 -0.36650952
  N -0.14594158 -1.73254887 -0.30098511
  H  0.41042563 -2.56705292 -0.41241106
  H  2.41695343 -1.00783720 -0.63422717
  H  2.19766346  0.70420012 -0.24229051
  H  2.24052667 -0.49837455  1.04700368
