16
opt_min/./Product_4290_0_opt.xyz
  C  1.96915000 -0.88513200 -0.12844700
  C  1.33269983  0.35185205 -0.58670221
  C -0.08803425  0.51531154 -0.24221987
  O -0.74311147 -0.55878350  0.44566108
  C -1.93303985 -1.00237215 -0.13235045
  H -1.77547560 -1.41011469 -1.13799383
  H -2.31202284 -1.79287311  0.51043501
  H -2.68352725 -0.20124628 -0.19030332
  C -0.16352093  1.80227563  0.61304471
  H  0.22296720  2.64229954  0.04932825
  H -1.19536649  1.98359398  0.89844202
  H  0.42572636  1.68222162  1.51496340
  H -0.60564642  0.72129134 -1.18957779
  H  2.42206128 -0.60448691  0.82420258
  H  1.29421635 -1.72180381  0.06580381
  H  2.78645965 -1.16635452 -0.79045178
