17
opt_min/./Product_10889_0_opt.xyz
  C -1.27979600 -0.46264000  0.63701400
  H -2.20054236 -1.03561679  0.53946837
  H -1.00507626 -0.41621656  1.69002656
  C -0.12574197 -0.92029101 -0.27709220
  H -0.40684429 -1.70676134 -0.97562984
  C  1.19994191 -1.18920266  0.44358836
  H  1.86914154 -1.79956784 -0.17661327
  H  1.09223032 -1.72296190  1.38873444
  C  1.95418869  0.07239228  0.59438264
  C  1.28812932  1.07096114 -0.26729862
  H  2.02360276  1.27973104 -1.05391669
  H  1.15989055  2.01354107  0.26834021
  C -0.02273578  0.51200749 -0.84113751
  H -0.08726517  0.63739843 -1.92295480
  C -1.28666990  0.90704478 -0.06217489
  H -1.17401966  1.76601676  0.60000573
  H -2.15881660  1.06059400 -0.69418567
