16
opt_min/./Product_3556_0_opt.xyz
  C -2.38556100  0.22046100 -0.29508300
  C -1.31056960 -0.38392484 -1.20355709
  C  0.07832342 -0.34266117 -0.55759933
  C  0.48498218  1.06156330 -0.21591772
  O  1.67250558  1.26456784  0.18528187
  C  2.68926340  0.24787564  0.34234436
  H  3.02890422 -0.09134222 -0.63619906
  H  3.51183844  0.71949993  0.87460009
  H  2.31111480 -0.59894509  0.91406048
  H  0.05914839 -0.92477561  0.37142410
  H  0.81110207 -0.82285220 -1.21951108
  H -1.55297206 -1.42245547 -1.43703576
  H -1.26617043  0.16053004 -2.14541807
  H -2.94851385  0.98844194 -0.81423492
  H -1.92406062  0.68280791  0.57243750
  H -3.08730138 -0.53440058  0.05030941
