10
opt_min/./Product_6113_0_opt.xyz
  C -1.39847100 -0.04096300 -0.28610900
  H -1.55713531  0.99463961 -0.56440893
  H -1.90207436 -0.79463077 -0.88221908
  C -0.12290338 -0.39178420  0.37358397
  N  0.81424341  0.63670022  0.55897015
  C  2.03637525  0.41511729  0.39157495
  H  2.72004376  1.23970857  0.53570363
  H  2.47359852 -0.54773483  0.11827617
  H  0.26603160 -1.41160750  0.23783330
  O -1.31149292 -0.28823986  1.08218124
