16
opt_min/./Product_6603_0_opt.xyz
  C  0.22517700 -0.85436100  0.48930800
  H -0.20946416 -0.80110569  1.48574560
  H  0.65731756 -1.84261992  0.32649715
  C -0.82313539 -0.44870516 -0.55538545
  O -2.10423847 -0.98360048 -0.34613856
  H -2.06429629 -1.93749113 -0.48458461
  H -0.46216813 -0.70433195 -1.56654465
  C -0.84377279  1.07489699 -0.36385954
  H -1.52420875  1.28054745  0.47054871
  H -1.18882350  1.60954165 -1.24651630
  N  0.50551981  1.45221527  0.03566213
  H  1.00859272  1.99243328 -0.66234240
  C  1.27705637  0.24377320  0.31955967
  O  2.20195676 -0.04643998 -0.70626836
  H  1.75079125 -0.52799142 -1.40999158
  H  1.88710136  0.40995005  1.21312869
