13
opt_min/./Product_2205_0_opt.xyz
  C -2.39708500  0.24355700 -0.10062700
  C -1.20487285 -0.41393538 -0.77499552
  O -1.21724751 -0.89172103 -1.92290215
  C -0.06122858 -0.51848708 -0.07063039
  N  1.14193108 -0.66308858  0.28543540
  C  2.22649957  0.28536015  0.04422985
  H  2.69507659  0.55635057  0.99215096
  H  1.82945502  1.17481601 -0.43894752
  H  2.97695587 -0.17350690 -0.59991013
  H  1.46028769 -1.49903107  0.78522596
  H -2.59645221  1.19343483 -0.59376664
  H -2.19451670  0.41804143  0.95284422
  H -3.27001042 -0.39271050 -0.21610730
