10
opt_min/./Product_4854_1_opt.xyz
  C -0.99905100  0.28142300 -0.48099400
  C  0.05243019  0.37915512  0.62622979
  C  1.36539297  0.73624637 -0.01198861
  O  2.16096812 -0.23683332 -0.19675004
  H  1.88444463 -1.13881142  0.13325011
  H  0.10744918 -0.59130071  1.15430488
  H -0.23053297  1.16224404  1.32921432
  H -0.74370432 -0.49862536 -1.19706424
  H -1.06790620  1.22309802 -1.01890297
  H -1.97078282  0.05019124 -0.05174145
