10
opt_min/./Product_5465_1_opt.xyz
  O  0.91901100  1.21791600  0.32470800
  C  0.73427681 -0.18352894  0.26035433
  C -0.77167078 -0.45164549  0.32487209
  O -1.43143312 -0.07333788 -0.85129589
  H -1.23951892  0.85763977 -1.01391731
  H -0.95171187 -1.52022747  0.45151314
  H -1.17828319  0.08398943  1.19146630
  H  1.22631601 -0.67596389  1.10847184
  H  1.13585386 -0.59126939 -0.67370861
  H  1.85201725  1.42840244  0.22197603
