15
opt_min/./Reactant_5566_0_opt.xyz
  C  2.07437000  0.20241500  0.27916200
  C  1.12038471 -0.17988253 -0.85276493
  O -0.18885001  0.32612852 -0.70634459
  C -0.96057852 -0.30980606  0.29722886
  C -2.36558009  0.27106529  0.24855062
  H -3.05189454 -0.35771905  0.80944635
  H -2.38237654  1.27230625  0.66806602
  H -2.68537231  0.32143864 -0.78842747
  H -0.50633031 -0.13436544  1.28281029
  H -0.97689779 -1.39356067  0.11769735
  H  1.46880139  0.26309187 -1.78912862
  H  1.08991656 -1.27216322 -0.96254985
  H  1.80373033 -0.30537226  1.20244439
  H  3.08464742 -0.08725406  0.00760494
  H  2.03856627  1.27438782  0.45350747
