12
opt_min/./Product_1143_0_opt.xyz
  O  1.73627800  0.92165000 -0.09298500
  C  1.23179215 -0.34285185 -0.43411833
  C -0.16472289 -0.59934129  0.14810711
  N -1.11051541  0.43234861 -0.27700701
  C -2.04239422  1.02242774  0.38698673
  H -2.02815245  0.67733831  1.44272919
  H -1.00193290  0.66786198 -1.25974358
  H -0.12988647 -0.59843887  1.24220400
  H -0.51258039 -1.58097159 -0.19402372
  H  1.17851306 -0.35739073 -1.52753081
  H  1.90380809 -1.14850032 -0.11070077
  H  2.03910848  0.91836124  0.82074918
