11
opt_min/./Product_4984_0_opt.xyz
  C -0.94074900  0.58746700  0.29364800
  H -1.41308506  0.77630038  1.26043320
  H -1.66862717  0.90443094 -0.45966406
  C  0.16158238  1.60630961  0.17475911
  O  1.32745444  1.18354532 -0.19217086
  C  1.59269487 -0.16134980 -0.43034187
  H  2.61391142 -0.31497374 -0.74789199
  N  0.80814723 -1.11650397 -0.29620940
  C -0.55637900 -0.89091018  0.12790649
  H -1.18101323 -1.39288103 -0.61686989
  H -0.66823527 -1.44613083  1.06499692
