14
opt_min/./Product_6645_0_opt.xyz
  C  1.79032800 -0.30270500  0.48841900
  H  2.40056038 -0.07281461  1.34917522
  H  1.83097593 -1.34156571  0.17930821
  N  1.70948928  0.73783641 -0.49850692
  H  1.69993418  0.44994367 -1.46939014
  C  0.52643860  0.43852298  0.26366071
  C -0.64329212 -0.25377777 -0.39638810
  H -0.36772346 -1.26763290 -0.70328080
  C -2.02471216 -0.14687994  0.28222007
  H -2.06495347  0.44448646  1.18934052
  H -2.54781641 -1.08323934  0.44290900
  C -2.40502636  0.60215158 -1.00084578
  O -1.19727557  0.47576097 -1.50081982
  H  0.24772683  1.21603440  0.96493866
