10
opt_min/./Product_1232_0_opt.xyz
  N  2.02843300  0.00743400 -0.66351300
  C  0.82868675 -0.24066449 -0.35736195
  N  0.26065344 -1.45980538 -0.60475672
  O -0.98695221 -1.43420843 -0.17951895
  C -1.36186465 -0.31975038  0.34369662
  H -2.36067761 -0.20786227  0.71532508
  C -0.24713102  0.65651008  0.31661322
  H  0.05746424  0.99543679  1.30794230
  H -0.47191297  1.54068893 -0.28346601
  H  2.33946701  0.94589608 -0.43093922
