16
opt_min/./Product_9628_0_opt.xyz
  C  2.92957800  0.43879100 -0.17564900
  C  1.59372891  0.04758928 -0.69160403
  N  0.69064202 -0.36469278  0.07402460
  C -0.59821689 -0.71564545 -0.43538079
  C -1.63750298  0.25737179  0.08915540
  H -1.37689463  1.30588387 -0.06726796
  C -3.05592647 -0.10104864  0.14042803
  H -3.35667540 -1.10816247 -0.13781250
  H -3.82256325  0.65628494 -0.00290219
  O -2.28148667 -0.00020437  1.29659409
  H -0.63948084 -0.69612746 -1.54193181
  H -0.84003573 -1.72093035 -0.07598170
  H  1.46692739  0.14168709 -1.78269648
  H  3.70405093 -0.17266073 -0.64139272
  H  2.96569810  0.32453126  0.90467144
  H  3.13886437  1.47894525 -0.43554125
