14
opt_min/./Reactant_5656_0_opt.xyz
  C  2.00389300 -0.23803600 -0.34239200
  O  0.69291923  0.03399738 -0.76211110
  C -0.27768757  0.04128911  0.24905264
  H  0.17664031 -0.12254432  1.22956346
  C -1.52272148 -0.82785363 -0.01065793
  H -1.54532916 -1.33541235 -0.97663970
  H -1.77531827 -1.54031165  0.77964736
  O -2.37331461  0.32231519  0.02609902
  C -1.27054636  1.21654587  0.18973640
  H -1.35295716  1.83513198  1.08390225
  H -1.12919196  1.84627822 -0.69140838
  H  2.36980643  0.51398087  0.36771010
  H  2.62603467 -0.21046237 -1.23376739
  H  2.08901617 -1.22914810  0.11812903
