12
opt_min/./Product_5245_0_opt.xyz
  C  1.47389100 -0.22173000 -0.20243900
  C  0.12876470 -0.16481602  0.52390393
  H  0.24108518 -0.62136493  1.51130303
  C -0.39764591  1.25214749  0.68081963
  N -1.54644609  1.20229461  0.06589323
  H -2.19518232  1.96974818 -0.05905490
  N -1.94449876 -0.03269160 -0.48718625
  C -0.98774968 -0.82960409 -0.23843745
  H -1.00894617 -1.85389305 -0.55787825
  H  1.38839917  0.23699218 -1.18521506
  H  1.78887821 -1.25684594 -0.32348440
  H  2.22102920  0.31526084  0.37426019
