13
opt_min/./Product_5013_0_opt.xyz
  O -1.74289200  1.39939100 -0.24038100
  C -1.60948684  0.19916268  0.47974209
  H -2.28049016 -0.03028442  1.28613478
  C -0.81415843 -0.75533136 -0.42208537
  H -1.28106694 -1.01235837 -1.37081591
  H -0.46405482 -1.64586502  0.10127557
  N  0.23631335  0.28031874 -0.57356121
  C  1.56158365 -0.09407180 -0.15099811
  H  1.59274329 -0.51542097  0.86583269
  H  2.19306241  0.79387785 -0.17962179
  H  1.95590720 -0.82698471 -0.85229640
  C -0.50753972  1.15320134  0.34034630
  H -0.06708659  1.88225674  0.99755373
