17
opt_min/./Product_2928_0_opt.xyz
  C  1.66511100  0.81391000 -0.06122800
  N  0.67830231 -0.24621411 -0.18625318
  C  1.14957867 -1.46568998 -0.44475867
  H  2.20759010 -1.62215081 -0.45151946
  H  0.48842413 -2.28508158 -0.61578096
  C -0.60001088  0.07276902 -0.00785042
  C -1.04930401  1.50129277  0.05788921
  H -2.10301341  1.55732257 -0.20633308
  H -0.94298390  1.92961739  1.06280486
  H -0.50214143  2.14018162 -0.63487656
  C -1.62863701 -1.00931138  0.08803236
  H -2.51910509 -0.62789813  0.58201647
  H -1.93102981 -1.39914272 -0.89016507
  H -1.23806452 -1.84367283  0.67201919
  H  1.71182718  1.39979558 -0.98157455
  H  1.41638889  1.47510144  0.76631763
  H  2.64398552  0.37605146  0.12206504
