14
opt_min/./Product_9318_0_opt.xyz
  C -1.65173463  0.48863075  0.38714366
  C -0.50587667 -0.49314671  0.20909599
  C  0.85121532  0.20118768  0.33541252
  O  1.91344314 -0.89924069  0.38306603
  C  2.36423604 -1.52333082 -0.58211205
  H  1.99553985 -1.23737244 -1.59149628
  C  1.13071475  1.10269285 -0.74355687
  N  1.38813703  1.77538878 -1.63300759
  H  0.97785989  0.72074867  1.29037279
  H -0.53871489 -1.27786395  0.96858751
  H -0.56351111 -0.96183984 -0.77789852
  H -2.60534659 -0.01684610  0.25016214
  H -1.58540838  1.29606169 -0.34030629
  H -1.63778103  0.92245572  1.38581880
