11
opt_min/./Product_6227_0_opt.xyz
  O  1.64034100 -0.87745000  0.77032900
  C  0.56604367 -0.27135951  0.18232265
  C -0.70617907 -0.87088884 -0.43930717
  H -1.09028276 -1.70159462  0.15032981
  H -0.63379272 -1.10442393 -1.49815678
  C -1.31541301  0.46734348 -0.07034969
  H -2.29163520  0.89323640 -0.21627535
  C -0.24520844  0.89860832  0.60001039
  H -0.00872708  1.76490245  1.19180830
  N  1.80743480 -0.21345768 -0.49931438
  H  2.32211863  0.65048086 -0.30529390
