19
opt_min/./Product_11870_0_opt.xyz
  C -2.37578400  0.33628500  0.05537100
  C -1.20408543 -0.07986034 -0.82252575
  C -0.12920773 -0.84037703 -0.04303497
  C  0.75620872  0.07953875  0.81252159
  C  1.62173266  0.94299549 -0.07858318
  C  2.92543367  0.31360542 -0.49893025
  H  3.63283036  0.42877953  0.32490322
  H  3.33258028  0.81859520 -1.37189742
  H  2.80168247 -0.74884023 -0.69469549
  O  1.28797428  2.04448914 -0.43648663
  H  1.38770644 -0.53020744  1.45996510
  H  0.11956301  0.72180108  1.42332921
  H  0.50376142 -1.39163942 -0.74434094
  H -0.61183034 -1.56790431  0.61403758
  H -0.76384506  0.80597344 -1.28389441
  H -1.57463409 -0.72567581 -1.62366934
  H -3.09245035  0.92029436 -0.52236582
  H -2.88702476 -0.53967020  0.45432077
  H -2.04095166  0.95044411  0.88855151
