13
opt_min/./Product_2312_0_opt.xyz
  O  3.11552700  0.50332900  0.33840200
  C  1.93862103 -0.07056609  0.55876108
  N  0.90470299  0.24780384 -0.08295544
  C -0.32861633 -0.36374487  0.20432220
  H -0.29890590 -1.19049466  0.91480493
  C -1.55117582  0.51887633  0.23467312
  H -2.30646159  0.30239025  0.97187379
  H -1.40582149  1.56904983  0.04608010
  C -1.34425161 -0.42777300 -0.90044505
  H -1.05857514 -0.01214747 -1.85202550
  H -1.95879512 -1.30782175 -0.98272228
  H  1.98484252 -0.83958420  1.33913289
  H  3.02600808  1.15176172 -0.37305981
