16
opt_min/./Product_10976_0_opt.xyz
  C  1.89404300 -0.35275000  0.40681700
  C  0.59471712 -0.14697852 -0.36780790
  H  0.48859600 -0.90768560 -1.15344577
  N -0.59652791 -0.01723611  0.50554371
  C -1.60450615 -1.03962108  0.38855252
  H -2.40243095 -0.83230611  1.09831300
  H -1.15477379 -1.99676603  0.63743270
  H -2.03482432 -1.09962583 -0.62353592
  C -0.92347272  1.30958293 -0.04259018
  H -0.95467729  2.09824533  0.71118891
  H -1.83307761  1.35717691 -0.65304871
  C  0.34285017  1.26030654 -0.86837364
  O  0.89333642  2.01668722 -1.60958790
  H  2.73820337 -0.22379170 -0.26370262
  H  1.90602009 -1.35270758  0.82490756
  H  1.95408046  0.38199671  1.20106126
