11
opt_min/./Product_5400_0_opt.xyz
  N  2.08892700  0.57494800  0.01412700
  C  0.87188635  0.18733602  0.00510545
  C  0.19501531 -1.10128111 -0.01604704
  H  0.68069896 -2.05553745 -0.02912129
  C -1.13752057 -0.87471346 -0.01613749
  H -1.95121325 -1.57469760 -0.02879802
  N -1.38242416  0.45827579  0.00326342
  H -2.26008457  0.94235868  0.00823849
  N -0.15797775  1.10315272  0.01617407
  H -0.06226611  2.10099760  0.03142737
  H  2.74443302 -0.19993131  0.00419581
