17
opt_min/./Product_11155_0_opt.xyz
  C  0.07227400 -0.89309600 -1.30499400
  H  0.04192648 -0.02920698 -1.95242098
  H  0.26019154 -1.82316383 -1.81839052
  C -0.84186724 -0.88463165 -0.11202036
  C -1.91191082  0.11997015  0.06121668
  C -1.83783125  1.29442917  0.66210681
  H -2.69738595  1.93975941  0.73012181
  H -0.94154661  1.65189911  1.13792275
  H -2.86392932 -0.19931184 -0.34980010
  H -1.18152742 -1.87490760  0.18286407
  C  0.64430225 -0.67058018  0.07448200
  C  1.29820955  0.61626657  0.34567131
  C  2.43559410  0.73209088  1.01264174
  H  2.93066757 -0.11959841  1.44918207
  H  2.91087638  1.68676339  1.15978994
  H  0.83583294  1.49574559 -0.07945621
  H  1.17045260 -1.50922224  0.51939422
