12
opt_min/./Product_790_0_opt.xyz
  N  2.21981000  0.25640500 -0.26997300
  C  0.84642207  0.16123507 -0.19697820
  C  0.02505132 -0.88791057 -0.12496254
  H  0.28420078 -1.92378115 -0.14846949
  C -1.37486301 -0.37350990  0.08140547
  H -2.09771431 -0.75557150 -0.64550271
  H -1.74034625 -0.61683599  1.09252941
  N -1.21739226  1.07032233 -0.14275054
  H -1.61871093  1.61995497  0.61599018
  O  0.19464163  1.36448815 -0.12749537
  H  2.64946179 -0.54315760 -0.71108436
  H  2.51776964  1.13945060 -0.66252027
