10
opt_min/./Product_1260_0_opt.xyz
  N  0.35627900 -0.43525400 -0.23623800
  C  1.72192956 -0.44945476 -0.22569106
  C  2.83017768 -1.07659219 -0.43707434
  H  2.24514248  0.48566903  0.08835685
  C -0.42377534  0.60330559  0.20979299
  C -1.74781054  0.55125335  0.30814247
  H -2.31752724  1.39568300  0.64183096
  H -2.29541481 -0.34034793  0.05233328
  H  0.12062098  1.50236834  0.46848126
  H -0.10971905 -1.29980070 -0.47017753
