11
opt_min/./Product_10791_1_opt.xyz
  C  0.16761100  0.20172700  0.92431700
  H  0.34836664  0.68659135  1.86885494
  C  1.23454763 -0.14566960 -0.06834624
  H  2.17934445  0.36205876  0.03653488
  H  1.33163102 -1.16174336 -0.42551227
  C  0.05179973  0.67604304 -0.49112357
  H  0.09348934  1.64780991 -0.94883769
  C -1.14598205 -0.25963827 -0.56169114
  H -2.10574409  0.25176280 -0.65921059
  H -1.08282692 -1.09159114 -1.26726717
  O -0.93888158 -0.67321106  0.79763864
