12
opt_min/./Product_3870_0_opt.xyz
  C -1.67248800 -0.04634000  0.20616000
  H -2.35613951 -0.73019011  0.69720232
  H -1.85024557  0.96909066  0.54567939
  C -0.19503679 -0.47226362  0.14993793
  C  0.85293679  0.50337749  0.58516652
  C  2.14585236  0.24166388  0.52069244
  H  2.51555244 -0.71362165  0.18475469
  H  2.88576429  0.97226770  0.79521259
  H  0.50176474  1.47486259  0.90661492
  H  0.02751089 -1.46897219  0.54133591
  O -0.33527422 -0.52525864 -1.28954627
  C -1.60028993 -0.17706260 -1.31963026
