14
opt_min/./Product_10667_0_opt.xyz
  O  0.26631700  2.04869900 -0.47705300
  N -0.10758210  0.72133482 -0.74998555
  C  0.39125262 -0.31661780  0.09108631
  C  1.61059994 -0.50268059  0.57384072
  O  2.65579983  0.35106072  0.39568957
  H  2.37131395  1.05383708 -0.20900400
  H  1.86347316 -1.36597917  1.17250291
  C -0.95777725 -0.98356363  0.15833171
  H -1.04971155 -1.87656913 -0.45552138
  H -1.33379203 -1.19099384  1.15813565
  C -1.49042942  0.29930460 -0.51169498
  H -2.03366066  0.95744644  0.17396282
  H -2.05734593  0.18699114 -1.43527946
  H -0.03277429  2.30452065  0.41353535
