15
opt_min/./Product_10865_0_opt.xyz
  C  2.26074600  0.73002600 -0.18495900
  O  0.85655525  0.69190376 -0.11795714
  C  0.33913216 -0.61536787 -0.14758689
  C -1.18177182 -0.54617227 -0.16085287
  O -1.80661915 -1.77987910  0.02953830
  H -1.88046250 -1.96610224  0.97335365
  C -1.84652154  0.41817466 -1.11489675
  C -1.84014658  0.69996719  0.32832926
  H -2.77041650  0.66852187  0.87280688
  H -1.19461324  1.51107354  0.63358273
  H  0.68336988 -1.15444073 -1.04082005
  H  0.67682542 -1.18518446  0.73839898
  H  2.54240106  1.77829127 -0.15299557
  H  2.62371557  0.28323745 -1.11533920
  H  2.71462331  0.20385337  0.66135104
