10
opt_min/./Product_1962_0_opt.xyz
  O -0.54859100  1.59451500  0.73343100
  C -0.34948165  0.37697379  0.16017935
  C -1.53405689 -0.48098379  0.07965148
  O -2.61052292 -0.11865696  0.49898872
  H -1.36703512 -1.46425831 -0.38754926
  C  0.81427090 -0.03558592 -0.29747009
  C  1.95178802 -0.46492480 -0.72781940
  H  2.63319088 -1.00485612 -0.08838670
  H  2.27051443 -0.30848982 -1.74664870
  H -1.49503944  1.62690508  0.96733452
