11
opt_min/./Product_4074_0_opt.xyz
  C  1.33817200  0.08044400  0.21634200
  C  0.02356622 -0.06993063 -0.52851662
  H  0.12189667 -0.39022609 -1.55733259
  C -1.21373556 -0.60666252  0.23000790
  H -1.89118799 -1.27221345 -0.28334483
  H -1.09883713 -0.83629697  1.28000446
  C -1.11727331  0.78651601 -0.18954258
  O -1.58871893  1.87984001 -0.20860475
  H  1.42913850 -0.68193998  0.98903417
  H  2.17660222 -0.02258387 -0.46640878
  H  1.40969979  1.05626712  0.69378257
