13
opt_min/./Product_735_1_opt.xyz
  C  2.06709100 -0.33513500  0.59508100
  C  0.81786815 -0.53151055  0.21615141
  C  0.08945431  0.37186369 -0.73887906
  O -1.00301530  1.07069261 -0.17545970
  C -2.10640990  0.26503921  0.15060612
  H -2.41947233 -0.34681932 -0.70394483
  H -2.91473857  0.94628947  0.40950212
  H -1.90426790 -0.38331519  1.00791513
  H -0.25892606 -0.21652345 -1.60387552
  H  0.76099101  1.15404179 -1.09486790
  H  0.25563740 -1.37506720  0.59359898
  H  2.56547019 -1.00238510  1.27261908
  H  2.63205677  0.50359242  0.22486658
