15
opt_min/./Product_7671_0_opt.xyz
  C  1.74778700  0.39883900 -0.60078800
  C  0.69507203  0.23495897  0.50014049
  H  1.17313426  0.18508892  1.47687353
  C -0.38055335  1.28380608  0.42325940
  C -1.43370427  0.23574933  0.68398577
  O -2.58934692  0.25147002 -0.10882541
  H -2.80696666  1.17202621 -0.29982349
  H -1.69880958  0.19950559  1.75003506
  C -0.39617894 -0.86459688  0.34079165
  O -0.51377408 -1.36277526 -0.94741551
  H -1.44544944 -1.29865930 -1.20463734
  H -0.34179460 -1.67877647  1.07762791
  H  1.70497208  1.40520126 -1.00694273
  H  1.51172296 -0.31009296 -1.39163469
  H  2.74591624  0.19858503 -0.22395053
