9
opt_min/./Product_204_0_opt.xyz
  C -0.72665840  0.03708352 -1.53671513
  C -1.62278551 -0.09017528 -0.55270650
  O -1.28157200 -0.07947529  0.76549165
  H -2.06349531 -0.16082867  1.31772655
  C  0.65827316  0.18596236 -1.33487990
  C  1.84237865  0.32846105 -1.18695887
  H  2.87761898  0.43682524 -1.07047153
  H -2.67442154 -0.19747916 -0.79120652
  H -1.06566349  0.00148940 -2.56221358
