8
opt_min/./Reactant_2597_0_opt.xyz
  C  1.86269500  0.10982500 -0.52335500
  C  0.77525156 -0.17650661 -0.11731305
  C -0.55159951 -0.50766357  0.37807039
  C -1.29661388  0.70324206  0.63435123
  N -1.88194404  1.66320957  0.83895832
  H -1.07589758 -1.10494669 -0.37364131
  H -0.45912601 -1.08669878  1.29916735
  H  2.81858763  0.35003123 -0.87709361
