14
opt_min/./Reactant_1176_0_opt.xyz
  C -1.88821900 -0.32525800  0.33699300
  C -1.01854609  0.16477319 -0.81202719
  O  0.34749806 -0.21529220 -0.63135736
  C  1.08899367  0.54740862  0.17959367
  O  0.67818197  1.52029776  0.75123048
  C  2.50242743  0.02808012  0.25201835
  H  2.97360744  0.37963290  1.16512209
  H  2.50417135 -1.05603550  0.20450098
  H  3.05577664  0.41382435 -0.60263555
  H -1.07166259  1.25624826 -0.88885165
  H -1.31737303 -0.29064323 -1.75854306
  H -2.93762835 -0.21293092  0.07602238
  H -1.68357059 -1.37557694  0.53660682
  H -1.68292708  0.25072824  1.23594160
