14
opt_min/./Product_9396_0_opt.xyz
  O  2.20715600 -0.45178700 -1.04325200
  C  1.22625641 -0.18189974 -0.11550092
  H  1.67113386  0.28903227  0.79590844
  O  0.61351617 -1.39437674  0.21809584
  C -0.76837436 -1.16498281  0.44519294
  H -1.32038504 -2.03405812  0.09152019
  H -0.95384183 -1.02506058  1.51990576
  C -1.07115389  0.10875296 -0.33271080
  H -1.81992930  0.09463797 -1.11080414
  N  0.20432645  0.70058030 -0.66565050
  C -0.63902817  1.37101728  0.30238846
  H -0.34817548  1.34424494  1.34579560
  H -1.05036542  2.30727303 -0.04585961
  H  2.45219019  0.37013148 -1.48317019
