14
opt_min/./Product_4092_0_opt.xyz
  O  0.24417200  0.83347100  1.10846600
  C -1.10821337  0.57660784  0.81496856
  H -1.53521674  1.42400077  0.25860188
  H -1.63384940  0.46879097  1.76084455
  C -1.13309543 -0.69862022 -0.05843523
  H -1.86511377 -0.61122505 -0.85489823
  H -1.37294127 -1.56843787  0.54587056
  C  0.30583660 -0.78234296 -0.59305403
  H  0.35400400 -0.82873727 -1.67717116
  H  0.82420153 -1.64050799 -0.16871484
  C  0.96668474  0.50629810 -0.04898315
  O  2.30735879  0.38739133  0.29447025
  H  2.70465954 -0.32968168 -0.20735331
  H  0.84589423  1.32620049 -0.79124514
