16
opt_min/./Product_7260_0_opt.xyz
  C -2.66835009  0.51204294 -0.98188054
  C -9.98310789  10.15076350 -1.96510739
  O -31.93308691  23.15662233 -14.36932585
  C -13.86616796  17.81630997 -5.48177021
  N  8.42860347 -15.92370629  5.49200492
  C -12.81770420 -26.89292641  0.58648765
  C  1.66406238  11.57091813 -1.51568624
  H  0.85014169  3.01677255  7.41995623
  H  9.10742876  0.83524055  2.01479539
  H  8.71741396  6.20786799  6.86938464
  H  2.55285909  11.72271861 -2.59388497
  H -44.44202765  16.77149461 -14.25002863
  H -1.50422477 -11.02840547 -13.39558768
  H -7.16960893 -2.71883179  4.70140466
  H  5.08994626  0.08731615 -1.50025974
  H -8.59212454  1.29650728  0.27317200
