16
opt_min/./Product_2812_0_opt.xyz
  C -1.22204813  1.46072708 -0.17087245
  C -1.11488481 -0.06121485 -0.21442904
  C  0.27190019 -0.59228193  0.05945933
  C  1.30599168  0.17194161  0.24184761
  C  2.34842856  0.92305837  0.41352028
  H  2.64454955  1.26606787  1.39206017
  H  2.95783506  1.24016820 -0.41798250
  C  0.39998732 -2.09611001  0.06656731
  H  0.74375762 -2.44844282 -0.90714126
  H -0.56399377 -2.55538504  0.27596534
  H  1.11889267 -2.42107006  0.81676504
  H -1.42865459 -0.42867561 -1.19743817
  H -1.79493161 -0.50157837  0.52247149
  H -2.03565900  1.80713756 -0.80564211
  H -1.40737819  1.80768449  0.84336869
  H -0.29716295  1.91572115 -0.51911277
