14
opt_min/./Product_3010_0_opt.xyz
  C  1.49800600  0.37731100  0.38423500
  C  0.43785476 -0.20068727 -0.53587759
  H  0.78873211 -0.23885049 -1.57133313
  C -0.22845770 -1.46195495 -0.05039888
  H  0.17984561 -2.44724108  0.09324022
  C -1.42542907 -0.91378163  0.10632342
  H -2.38665642 -1.25620713  0.44559532
  C -0.99618842  0.44094493 -0.39401553
  O -1.15008212  1.48256271  0.52663134
  H -0.66151224  2.24855623  0.20512267
  H -1.43659970  0.70620597 -1.36672945
  H  1.86812701  1.32594132 -0.00224498
  H  1.06936874  0.53936802  1.37172232
  H  2.33514303 -0.31252601  0.47324643
