9
opt_min/./Reactant_2055_0_opt.xyz
  N -1.14378336 -0.15211721 -0.52059115
  C -0.03439944 -0.05824852  0.43080880
  C  0.97099754 -1.07943138  0.19339208
  N  1.74781212 -1.88527401 -0.03220930
  C  0.64439242  1.23150210  0.39536601
  N  1.12216385  2.26613377  0.32112129
  H -0.44029114 -0.19803478  1.44948261
  H -1.48751635  0.76852402 -0.76614554
  H -0.85588257 -0.62248988 -1.37128851
