14
opt_min/./Reactant_4968_0_opt.xyz
  C -0.66604400  1.15544400 -0.26708600
  C  0.03313749 -0.09328187  0.28367918
  C  1.42131378 -0.26089061 -0.34758587
  H  1.32100827 -0.37377704 -1.42240659
  H  2.02165273  0.61540164 -0.12273223
  H  1.91194416 -1.13608421  0.06499181
  O  0.21976562 -0.02436073  1.68294310
  H -0.61824632  0.19816050  2.10357099
  C -0.79419536 -1.32144407 -0.08266234
  O -1.15303603 -1.60203513 -1.18931519
  H -1.01694430 -1.97362832  0.78993791
  H -1.60192893  1.33519895  0.25832413
  H -0.87511772  1.01314657 -1.32184893
  H -0.02195308  2.02173271 -0.14148840
