14
opt_min/./Product_4200_0_opt.xyz
  C -2.42559200  0.29034000  0.33078900
  N -1.14038120  0.40803587 -0.31121622
  C -0.08916306 -0.41541667  0.12556901
  C  1.19153944 -0.13437431  0.00846772
  C  2.61408949 -0.51376684  0.09111721
  H  3.01344880 -1.25888632 -0.59586215
  H  3.11218154 -0.51331049  1.06033936
  N  2.14603282  0.72596458 -0.43323653
  H  2.40700658  1.58653041 -0.84942088
  H -0.39729222 -1.35117734  0.56644852
  H -0.85332638  1.35987569 -0.49434389
  H -3.21417358  0.51216720 -0.39083242
  H -2.54781164  0.95813278  1.19618103
  H -2.55252168 -0.73441617  0.67811831
