16
opt_min/./Product_8002_0_opt.xyz
  C  2.89349203  0.67862180 -0.25167237
  C  1.92847458 -0.12751492 -0.56246376
  C  0.93047393 -0.89633986 -0.87232835
  C -0.47835029 -0.40369628 -1.08566161
  C -1.04501609  0.23683313  0.16748481
  H -0.32496381  0.83776748  0.71458999
  C -2.46964967  0.63993381  0.20401815
  H -3.08412747  0.42750022 -0.66516449
  H -2.76685702  1.51897018  0.76013969
  N -1.98143753 -0.45411914  1.01934516
  H -2.25014487 -1.37809866  0.68759890
  H -1.11431510 -1.24065076 -1.38515592
  H -0.48398536  0.33303119 -1.89431355
  H  1.10313382 -1.96170866 -0.97015939
  H  3.12713896  0.89168317  0.77929822
  H  3.52265621  1.11246848 -1.01197846
