10
opt_min/./Product_2491_0_opt.xyz
  O  0.89172906  0.50968293 -1.48976560
  C  0.26936803  0.15848915 -0.30938240
  C  0.69567901  0.68587973  0.94902187
  N  0.17563436  0.29701785  2.04379729
  H  0.54765896  0.75343068  2.87111746
  H  1.49169580  1.44560993  0.87160785
  N -0.67098514 -0.71006910 -0.37712347
  C -1.76162968 -1.19970890 -0.45560035
  H -2.01454975 -2.23857245 -0.40737084
  H  1.72504768  0.95025534 -1.29208336
