19
opt_min/./Reactant_10806_0_opt.xyz
  C -2.68597681  0.36765800  0.42548404
  C -1.24778457 -0.08680871  0.65066601
  C -0.79879954 -1.09685900 -0.40414104
  C  0.66123185 -1.52063770 -0.20575076
  C  1.57408902 -0.40948038 -0.38893876
  C  2.32349885  0.51198533 -0.54529599
  C  3.22717117  1.62621490 -0.74321676
  H  3.83977524  1.77233476  0.14531644
  H  3.87233060  1.43258586 -1.59809898
  H  2.66226586  2.53728051 -0.93272824
  H  0.91605571 -2.30890663 -0.91924223
  H  0.79050652 -1.92743506  0.80147742
  H -0.91464271 -0.65705830 -1.39639386
  H -1.43723632 -1.98251280 -0.35728008
  H -0.58152131  0.77537310  0.61683020
  H -1.16178656 -0.53640032  1.64140505
  H -3.35759418 -0.48787963  0.42335148
  H -2.77997225  0.87716063 -0.52864145
  H -3.00154130  1.04440737  1.21272309
