15
opt_min/./Product_6067_0_opt.xyz
  C -1.59770900  0.13863200 -0.56669700
  C -0.85661797  0.10907176  0.77781450
  C  0.47788080 -0.63050873  0.69196250
  C  1.51655993  0.04884806 -0.17147432
  O  2.57369546 -0.75782161 -0.37448533
  H  3.20861624 -0.27899296 -0.93175181
  N  1.52715877  1.19395550 -0.69193085
  H  0.70470120  1.75930656 -0.52372680
  H  0.91355294 -0.73355596  1.68887465
  H  0.32567634 -1.63889522  0.30315902
  H -0.68275540  1.12431030  1.14043888
  H -1.47097352 -0.39498177  1.52479590
  H -1.98438389  1.13088938 -0.78487171
  H -2.43625185 -0.55281490 -0.56639255
  H -0.93267965 -0.14540894 -1.37853019
