12
opt_min/./Product_2475_0_opt.xyz
  N  1.50069406  0.52833302 -0.32282267
  C  0.10575562  0.35759830 -0.03797333
  N -0.52566490  1.57972372  0.09334500
  C -1.04962880  2.61500170  0.20338589
  C -0.66436861 -0.76196466 -0.68572811
  H -0.12253275 -1.44615358 -1.31758672
  H -1.66345554 -0.54696713 -1.02835744
  C -0.42017884 -0.79055190  0.79749454
  H -1.25301267 -0.62257333  1.45831069
  H  0.30927589 -1.48502996  1.18279226
  H  1.89953242 -0.31882866 -0.70307892
  H  2.02027429  0.78970119  0.50644442
