15
opt_min/./Product_11787_0_opt.xyz
  C -2.63797200  0.26863500  0.23741100
  N -1.20296461  0.19364604  0.27512824
  C -0.47994575 -0.88837964 -0.09189225
  N -0.82523473 -2.06861812 -0.37596166
  H -1.82512545 -2.23676943 -0.35520822
  O  0.89370158 -0.68008102 -0.12367241
  C  1.34902696  0.55165603  0.04285633
  C  2.84558509  0.52159230  0.01811870
  H  3.20145185  0.07914509  0.95029187
  H  3.21020898 -0.11325906 -0.79126311
  H  3.24692559  1.52827447 -0.07421539
  H -0.65607704  1.05212551  0.33083956
  H -3.06270705 -0.67653158  0.58364011
  H -3.01635831  0.46509514 -0.77296413
  H -2.97029150  1.06590772  0.89864770
