13
opt_min/./Product_4880_0_opt.xyz
  C -1.50602300 -0.24674000 -0.44079500
  N -0.33270980  0.35569536  0.20142126
  H -0.64430861  1.02595155  0.90738407
  C  0.81260360  0.82389640 -0.76697908
  H  1.01900741  1.87850693 -0.49050115
  C  1.77475948 -0.10503937  0.00995267
  H  2.55014799  0.33131075  0.65021468
  H  2.26056596 -0.88234424 -0.58864485
  C  0.64114868 -0.61387985  0.78958549
  O  0.35772666 -1.46281622  1.57550684
  H -1.23913233 -0.45128838 -1.47740418
  H -2.35738972  0.43098816 -0.41096773
  H -1.76974331 -1.17869349  0.06489362
