10
opt_min/./Product_1087_0_opt.xyz
  N -1.83652200  0.51787200  0.23469900
  C -0.94040996 -0.38399909 -0.26203953
  O -1.25713531 -1.35659918 -0.88518143
  N  0.38527810 -0.06447016  0.07793594
  C  1.43780771 -0.78586868 -0.32480641
  O  2.57992249 -0.36334432  0.09422217
  H  2.57856838  0.43796761  0.67561994
  H  0.51412233  0.76402777  0.68330300
  H -1.56602779  1.41729781  0.59017559
  H -2.79708098  0.39119916 -0.03327822
