14
opt_min/./Product_4321_0_opt.xyz
  C -2.19793900  0.57984800  0.32578100
  C -0.77704437  0.14539035  0.02999185
  O -0.26410487 -0.56377204  1.20277264
  C  0.90972162 -0.98476062  1.38853432
  C  1.98117066 -0.75566778  0.33902786
  O  2.06984269  0.53198401 -0.26263899
  H  2.32059684  1.15972672  0.42211341
  H  2.95430869 -1.03226975  0.76444602
  H  1.75746637 -1.46276258 -0.47182488
  H -0.74060639 -0.55880337 -0.80762352
  H -0.13437471  0.99649815 -0.19904553
  H -2.80934219 -0.28114152  0.58155647
  H -2.62297110  1.06510663 -0.54876898
  H -2.21366804  1.27727380  1.15953694
