16
opt_min/./Product_3915_0_opt.xyz
  C  2.71694100  0.54919600 -0.84761600
  O  1.45892790  0.62888076 -0.23122755
  C  0.78182143 -0.60451727 -0.19439743
  C -0.63639059 -0.36449029  0.32548582
  C -1.52782195  0.30469102 -0.63487186
  C -2.95454268  0.20483151 -0.29173306
  H -3.35299620 -0.43876272 -1.08431261
  H -3.21889424 -0.23743176  0.68029235
  H -3.44604209  1.16727951 -0.42257662
  H -0.55865115  0.37079788  1.13922967
  H -1.04873493 -1.28343515  0.76376575
  H  1.31741372 -1.29839511  0.48056073
  H  0.74710569 -1.06068682 -1.19333251
  H  2.62556421  0.21706598 -1.88971374
  H  3.37580665 -0.15346367 -0.31917560
  H  3.14126408  1.54928078 -0.81499374
