14
opt_min/./Product_8709_0_opt.xyz
  C -2.10813100 -0.55469000 -0.07635600
  N -0.70407084 -0.66048312 -0.36502423
  C  0.14051569  0.14907693  0.13292383
  N -0.08188926  1.18727378  0.99419141
  H -1.00844624  1.57375253  1.06578055
  H  0.68590489  1.81340266  1.17285760
  C  1.56666791 -0.10349024 -0.23723973
  O  2.43747084  0.77882701  0.29241091
  H  3.32125391  0.51949164 -0.01047005
  N  1.99122688 -1.02335118 -0.98667397
  H  1.24429461 -1.62366630 -1.32452186
  H -2.56236770 -1.51642388 -0.30984556
  H -2.31961495 -0.29151913  0.96552921
  H -2.56703097  0.19961244 -0.72497777
