16
opt_min/./Product_10737_0_opt.xyz
  N  2.90086600  0.07533200 -0.83685700
  C  1.68601198  0.59371300 -0.31304304
  H  1.85884527  1.19431350  0.57798815
  O  0.75643311  1.10831274 -1.19897995
  C  0.36489361 -0.04360257 -0.47727389
  C -0.75377375  0.11286888  0.53161228
  C -2.03811052 -0.58586906  0.06156513
  O -2.41648199 -0.24375388 -1.24067825
  H -2.52257225  0.71247480 -1.29911846
  H -2.83965587 -0.39206420  0.78527255
  H -1.87819931 -1.66838716  0.03130381
  H -0.46894575 -0.31425722  1.49503790
  H -0.94333800  1.18073360  0.66437215
  H  0.29214766 -0.93609258 -1.08943526
  H  2.73717410 -0.46555084 -1.67824877
  H  3.37817989 -0.50063564 -0.15545461
