14
opt_min/./Product_3594_0_opt.xyz
  C  1.03213100  0.17902900 -0.90775500
  H  1.00375494  1.07842702 -1.52397005
  H  1.36385365 -0.65426393 -1.52679162
  C  1.78026966  0.32761279  0.43991884
  H  2.55143451 -0.42334388  0.61800252
  H  2.19699935  1.31838782  0.62605219
  C  0.45280592  0.04973844  1.08548917
  H  0.16190591 -0.02258298  2.11930194
  C -0.19370441 -0.08024837 -0.07358115
  C -1.59597129 -0.35018919 -0.49256557
  O -2.46372040 -0.60647646  0.58548708
  H -2.36399280  0.10120760  1.23328716
  H -1.96113494  0.50559405 -1.08996212
  H -1.63878368 -1.24248040 -1.12773885
