13
opt_min/./Product_2905_0_opt.xyz
  C  2.03846589  1.18393949  0.42969499
  O  1.26992100  0.57650408 -0.59919188
  C  0.14283832  0.02117482 -0.19103332
  N -0.37975985 -0.06915111  0.98308791
  C -1.54753917 -0.78997611  0.43058158
  H -2.47052349 -0.22521761  0.55372458
  H -1.67162183 -1.78880550  0.84455735
  C -0.90281877 -0.70586940 -0.97600300
  H -1.43825464 -0.13820385 -1.73210249
  H -0.57758273 -1.65845667 -1.38896332
  H  2.89618760  1.64002453 -0.05971921
  H  1.44380605  1.93278716  0.95403294
  H  2.37070115  0.43025331  1.14663027
