13
opt_min/./Product_6006_0_opt.xyz
  C -2.09112900  0.68968600  0.73364300
  N -0.69351029  0.46123180  0.57592835
  C -0.26705126 -0.13213551 -0.46584811
  C  1.10779744 -0.39707092 -0.70330284
  O  2.01425971 -0.00128034  0.13653585
  C  3.28089890 -0.17875831  0.04177829
  H  3.88332022  0.22028012  0.83456386
  H  3.72262252 -0.71475231 -0.78703434
  H  1.40742607 -0.94328816 -1.59215911
  H -0.93912136 -0.48664734 -1.26492774
  H -2.42022314  0.20217472  1.65416154
  H -2.25511102  1.76267925  0.85379360
  H -2.69721286  0.32029064 -0.10748674
