10
opt_min/./Product_2481_0_opt.xyz
  O  2.01989600  0.16048400  0.25111200
  C  0.75779954 -0.21919560  0.12013378
  C -0.34900126  0.77996813 -0.13042417
  H -0.21871842  1.33709514 -1.06058981
  H -0.44735826  1.48893719  0.69575791
  N -1.43377663 -0.17738000 -0.18054619
  H -2.38660576  0.10227767 -0.34341474
  C -1.06253552 -1.43757030  0.00041264
  N  0.33260614 -1.42111672  0.18958921
  H  2.57196787 -0.61832859  0.41122243
