14
opt_min/./Reactant_4090_0_opt.xyz
  O  1.69021700  0.39947100  1.29539100
  C  1.31485446  0.14068615 -0.04415502
  C  0.19790876 -0.90243466 -0.04815146
  C -1.04132757 -0.42592979  0.72384953
  C -1.65900206  0.75877135  0.03158044
  O -2.25295448  0.71022521 -1.00881191
  H -1.50783090  1.73020897  0.54628928
  H -0.75581034 -0.17953963  1.74326677
  H -1.77009626 -1.23664033  0.72906216
  H  0.56953253 -1.81200962  0.42066473
  H -0.07161643 -1.12213118 -1.08055718
  H  2.17592446 -0.25710953 -0.60111824
  H  0.97455826  1.05230346 -0.54734864
  H  2.22800959  1.19525878  1.33023022
