17
opt_min/./Product_7732_0_opt.xyz
  C  2.11296100 -0.29566500 -1.07831800
  C  0.93033311  0.32561659 -0.38462071
  C  0.09664066 -0.43348021  0.34060623
  C -1.12057528 -0.01475341  1.08557906
  C -2.32558074 -0.84382763  0.64245264
  H -2.11732642 -1.91007606  0.72284413
  H -3.18672533 -0.61371365  1.26681378
  H -2.57369115 -0.61514521 -0.39193325
  H -1.31703692  1.04479770  0.94435085
  H -0.94676736 -0.20269775  2.15193700
  H  0.30573073 -1.50093431  0.38625894
  C  0.78865619  1.77498113 -0.54117980
  O -0.03989790  2.49683614 -0.04245899
  H  1.55321531  2.20601455 -1.22097117
  H  2.37861133  0.26117570 -1.97482296
  H  2.98109230 -0.29793826 -0.41697779
  H  1.90273370 -1.32525862 -1.35779493
