8
opt_min/./Product_1039_0_opt.xyz
  C  0.22647590 -0.96316394  0.44437031
  N  1.41679282 -0.31401564  0.67497010
  N  1.69845308  0.83834134  0.58483709
  N  2.16056450  1.87107700  0.56195644
  N -0.82934343 -0.37213942  0.02876359
  C -1.77275346  0.23599451 -0.33505696
  H -2.60748503  0.75384333 -0.68659693
  H  0.22627386 -2.02248126  0.61003773
