17
opt_min/./Product_10574_0_opt.xyz
  C -1.81659600  0.45905400  0.97440900
  C -1.32343148 -0.21396096 -0.28763128
  H -1.90296016 -1.07659847 -0.60049461
  C -0.70324665  0.58034059 -1.41105933
  H -0.58027150  1.64476550 -1.24846421
  H -0.90313534  0.32443773 -2.44055667
  C  0.13762110 -0.31098970 -0.57182905
  C  1.14525699 -1.41169609 -0.73850977
  H  1.71642192 -1.47778864 -1.65573573
  H  0.90853163 -2.37633866 -0.30572985
  C  1.37100643 -0.25873692  0.16450329
  C  2.20523607  0.35721847  0.96450644
  H  3.17294710 -0.05265795  1.20421397
  H  1.94974207  1.29290954  1.43820823
  H -1.88320748  1.53751425  0.84659336
  H -2.80092353  0.08264974  1.24099288
  H -1.13994497  0.26464615  1.80606993
