14
opt_min/./Reactant_1438_0_opt.xyz
  C -1.60609200  0.13350100 -0.84767200
  C -0.77236833  0.11956658  0.44753158
  O -0.42229717 -1.19202801  0.83047990
  H -1.22501349 -1.70546544  0.96531208
  C  0.49133093  0.93761113  0.20560647
  O  0.47165980  2.14128673  0.25414327
  C  1.72528940  0.14198559 -0.09340315
  H  1.96385118 -0.49130287  0.75681289
  H  2.55062344  0.80928133 -0.31035625
  H  1.54863265 -0.52727623 -0.92969139
  H -1.36160996  0.61491522  1.23265076
  H -1.05336782 -0.34255282 -1.65220861
  H -1.82864942  1.15598707 -1.12372171
  H -2.53193506 -0.41760739 -0.70118630
