15
opt_min/./Product_9904_0_opt.xyz
  C  1.86793788  0.58625112 -0.00134243
  C  0.77934461 -0.40412201 -0.31640908
  H  0.69652787 -0.63097610 -1.38175500
  C  0.26862646 -1.32208857  0.70667235
  H -0.13469305 -2.28486802  0.38738618
  N -0.57626507 -0.15618504  0.24740639
  C -0.55297710  0.34978280  1.50036804
  N -0.62013410  0.84455559  2.53735807
  C -1.77144355 -0.11844716 -0.58457897
  H -2.40123669 -0.98677277 -0.37507584
  H -2.34443564  0.78135350 -0.36119121
  H -1.49709214 -0.13312834 -1.63690018
  H  1.88591634  0.79684970  1.06403329
  H  2.82216317  0.13896379 -0.27221555
  H  1.74753921  1.51097568 -0.56302826
