9
opt_min/./Product_1686_1_opt.xyz
  O -0.86402300  1.83843000  0.78035300
  C -0.47535814  0.80085361  0.35373797
  C -1.08990248 -0.53774480 -0.05694757
  H -1.49971247 -1.11534136  0.77373659
  H -1.78819285 -0.52167137 -0.89196732
  O  0.22119049 -1.00429182 -0.42743035
  C  0.83714542  0.17625042 -0.05263159
  N  2.01926775  0.55630431 -0.05651817
  H  2.69835089 -0.11568257 -0.40182770
