15
opt_min/./Product_11298_0_opt.xyz
  C -1.51682100  1.26307500 -0.06666000
  C -1.82629456 -0.21161444 -0.17165934
  O -2.97112061 -0.59337835 -0.29273940
  C -0.74094471 -1.20795043 -0.12816163
  C  0.59536065 -1.10163342 -0.00725009
  C  1.43990063  0.05643428  0.12361766
  C  2.76402841 -0.04892078  0.23335706
  H  3.25869834 -1.00741316  0.22889273
  H  3.39604163  0.81636397  0.33112443
  H  0.99532329  1.03795967  0.13365531
  H  1.15132426 -2.03295300 -0.00597881
  H -1.14700198 -2.21017398 -0.21408471
  H -0.87105111  1.57520735 -0.88414287
  H -2.45570346  1.81308290 -0.11953474
  H -1.02346365  1.48205328  0.87751639
