14
opt_min/./Product_6945_0_opt.xyz
  O  2.47849100  0.59604500 -0.84679700
  C  2.40629383  0.15171233  0.28855274
  C  1.18695958 -0.23166684  0.93187885
  C  0.01353672 -0.10403530  0.26527733
  N -0.26503892  0.34543721 -0.96889342
  H  0.33789583  0.69208546 -1.69413453
  C -1.69539282  0.16557196 -0.86513593
  H -2.26528091  1.09603157 -0.91103525
  H -2.11233252 -0.54937327 -1.57695258
  C -1.44142910 -0.38319439  0.55727358
  H -1.66812252 -1.43805850  0.68060957
  H -1.87156658  0.18275441  1.37629994
  H  1.19373474 -0.61940310  1.93627407
  H  3.32395830  0.02132243  0.89176968
