14
opt_min/./Reactant_6851_0_opt.xyz
  C  2.44590200 -0.22444100 -0.00726700
  C  0.98146965  0.03030021  0.07031058
  C -0.08741969 -0.74976996 -0.26289245
  H -0.05999126 -1.74503511 -0.65856589
  C -1.25218273  0.01019064  0.03451021
  N -2.56627165 -0.42516386 -0.07673763
  H -2.68365953 -1.18079734 -0.73507729
  H -3.24072161  0.31390298 -0.20398916
  C -0.79752587  1.20347649  0.52108929
  H -1.30372733  2.07973247  0.86881145
  O  0.55807710  1.21617756  0.54375321
  H  2.97904418  0.70262936  0.18521348
  H  2.74530749 -0.96131297  0.73748884
  H  2.71936678 -0.60277731 -0.98911244
