14
opt_min/./Reactant_10668_0_opt.xyz
  O  2.62482700 -0.50551100  0.87603700
  N  1.53428929 -1.24866357  0.52886133
  C  0.50136512 -0.65991115  0.13154004
  C -0.85096740 -1.17183288 -0.25197450
  H -0.85769459 -1.81191605 -1.13142305
  H -1.35996224 -1.68628150  0.56096284
  C -1.30539856  0.28287856 -0.48084425
  H -1.64006615  0.50516208 -1.49149938
  H -2.04912154  0.63153939  0.23239423
  C  0.12153935  0.79013977 -0.15370701
  O  0.27575091  1.64530706  0.95066872
  H -0.18389116  2.47494580  0.78183389
  H  0.64784105  1.19798708 -1.03130789
  H  2.41616903  0.44651368  0.85180398
