13
opt_min/./Product_249_0_opt.xyz
  C -1.84219600  0.93342399 -0.63796101
  C -0.57239267  0.14419638 -0.67728345
  C  0.37575247  0.22477345  0.24024832
  C  1.64401096 -0.58644981  0.21462131
  C  1.72450390 -1.43034538  1.38051545
  N  1.77867825 -2.09791352  2.30741639
  H  1.68138288 -1.21772120 -0.67446543
  H  2.51780907  0.06862330  0.21893950
  H  0.26137740  0.89692754  1.07964601
  H -0.45667119 -0.53272528 -1.51255960
  H -1.68112567  1.90960229 -0.19308276
  H -2.58756933  0.41419438 -0.03765370
  H -2.25011833  1.06495502 -1.63390271
