16
opt_min/./Product_7615_0_opt.xyz
  C  2.49427600  0.16847500  0.10222900
  C  1.20021790  0.23517375 -0.63875170
  C  0.05196874 -0.25031354  0.16331569
  N -0.11280404  1.16964478  0.53075567
  H -0.98029894  1.51673753  0.13535581
  H  0.65807233  1.70480256  0.10219516
  C -1.09997087 -0.83282095 -0.64290855
  C -2.39618677 -0.96946673  0.10514315
  O -2.59669656 -0.62176046  1.23333982
  H -3.19724584 -1.43557659 -0.49898329
  H -0.82381905 -1.82412495 -1.01311069
  H -1.28562886 -0.21383716 -1.52749574
  H  0.23044718 -0.84774137  1.06792729
  H  3.03256255 -0.63299984 -0.40682504
  H  3.09057568  1.06904634 -0.03828360
  H  2.42133681 -0.06791606  1.16593890
