14
opt_min/./Product_2143_0_opt.xyz
  C -1.65939900 -0.67854000  0.22207700
  C -0.38085695 -0.22954232 -0.43878748
  H -0.11073905 -0.80185310 -1.31422485
  C  0.03947667  1.19455603 -0.40332777
  H  0.56363717  1.60704391 -1.24971732
  H -0.58827193  1.91515690  0.09301999
  C  0.77393695  0.19765023  0.46288987
  C  2.12338357 -0.23324391  0.09948361
  O  2.95170243 -0.63608901  0.87598030
  H  2.35265765 -0.17708097 -0.98515513
  H  0.58699964  0.20516512  1.52584207
  H -1.49552416 -1.60408441  0.76636992
  H -2.02232618  0.07624750  0.91089726
  H -2.43186707 -0.85612708 -0.52116539
