9
opt_min/./Product_1986_0_opt.xyz
  O  1.12287577 -1.12157939 -0.33498406
  C  3.36295135  6.61509977  3.45060109
  C  0.03962597  17.93057587 -13.50301298
  H -26.79280153 -14.16560057  1.68180223
  H -7.25915194  37.58978909 -0.96515305
  O  0.21694515  3.77312685  7.29862130
  C  2.28724627  6.21369392  6.31245301
  H  12.59161570  10.92357524 -14.96491139
  H -3.38439728  4.21966288 -4.80945157
