10
opt_min/./Product_836_0_opt.xyz
  O -2.28992200  1.57845000  0.39349500
  C -1.57031859  0.65346639  0.21151687
  C -1.33566968 -0.79580418 -0.00523242
  H -1.36467447 -1.48403678  0.82904079
  H -1.50332254 -1.24522003 -0.97477397
  N -0.31579781  0.25604772  0.06164458
  C  1.01576685  0.49463225 -0.00869366
  N  1.82237044 -0.45211242 -0.20345082
  H  2.79887489 -0.18439469 -0.24265108
  H  1.25272970  1.56107113  0.12081288
