16
opt_min/./Product_11696_0_opt.xyz
  C  2.09643400 -0.98958700  0.76269700
  H  2.09730386 -2.04915589  0.78434680
  C  2.57850205  0.19283881  0.96985900
  H  3.31448153  0.87460679  1.31128729
  N  1.25202885  0.13280967  0.32325780
  C  0.17365767  0.81449779 -0.23256103
  C -0.95395594 -0.06676465 -0.72075418
  C -2.09174762  0.71312621 -1.31427972
  H -1.74384618  1.31056290 -2.15539954
  H -2.50798842  1.39523694 -0.57336471
  H -2.87869130  0.04496166 -1.65363498
  C -0.95891982 -1.38578825 -0.64253083
  H -1.78963951 -1.96711354 -1.00613412
  H -0.13963115 -1.93074244 -0.21371511
  H  0.48517100  1.44565599 -1.10137432
  H -0.27862665  1.53159652  0.49498911
