14
opt_min/./Product_816_0_opt.xyz
  C -1.04355400 -0.97502800  0.31706700
  H -1.72146742 -1.72130010 -0.10787533
  H -1.35305636 -0.87274050  1.36571447
  C  0.29446100 -1.56658108  0.42665149
  C  1.39276050 -0.64823979  0.04888391
  H  2.33560956 -0.96031527  0.50794681
  H  1.48102444 -0.87082602 -1.02707858
  C  1.12307091  0.80990692  0.26654589
  H  1.93142820  1.41640921  0.64592797
  C -0.09659427  1.29617341  0.08385158
  H -0.34058690  2.32650702  0.29262314
  C -1.17434178  0.38214893 -0.40427406
  H -1.05572174  0.20772312 -1.47834854
  H -2.16352438  0.81199596 -0.24059377
