11
opt_min/./Product_1616_0_opt.xyz
  N  2.43750800  0.24130100 -0.17447800
  C  1.31628391 -0.27735653  0.37785733
  O  1.27874785 -1.00948727  1.32820287
  O  0.22643873  0.19762281 -0.28891515
  C -1.01170590 -0.17899510  0.17270926
  C -2.12089587  0.22667773 -0.41403362
  H -2.09911810  0.86816295 -1.27710377
  H -3.07841037 -0.07726666 -0.03778875
  H -0.98450320 -0.82625897  1.04134070
  H  3.33737302 -0.05973869  0.15349534
  H  2.37696043  0.79453046 -1.01025167
