12
opt_min/./Reactant_2477_0_opt.xyz
  N  1.48332500  0.60024900 -0.31171598
  C  0.09720554  0.37233973 -0.03141313
  C -0.63323316  1.59383073  0.10747408
  N -1.22706621  2.56572598  0.21903727
  C -0.62660225 -0.78234898 -0.68044386
  H -0.04963316 -1.43706510 -1.31581048
  H -1.63017167 -0.60153141 -1.03442727
  C -0.39134546 -0.81151593  0.79477647
  H -1.22888211 -0.66877279  1.46035629
  H  0.37070446 -1.47172127  1.18439830
  H  1.93580784 -0.23855041 -0.65421947
  H  1.98638367  0.94723194  0.49751636
