12
opt_min/./Product_3621_0_opt.xyz
  C -1.92901400 -0.00655800 -0.09695500
  C -2.54145692  1.02909324 -0.54180583
  C -0.65607870 -0.52478930  0.49416604
  C  0.47131746  0.46496752  0.29138594
  H  0.21151730  1.49796159  0.50188632
  C  1.86724425  0.04924092  0.42525345
  H  2.60922387  0.76707979  0.75293547
  H  2.08810020 -0.98731904  0.65166357
  O  1.29659714  0.29003998 -0.82462328
  H -0.80304233 -0.67873286  1.56885050
  H -0.38710565 -1.47504240  0.03119610
  H -2.72536108 -0.75726580 -0.22178028
