13
opt_min/./Product_449_0_opt.xyz
  O -0.13377500  1.32882400  0.90592000
  C  0.04242883  0.48044745 -0.19451018
  C  1.19551102 -0.50830213  0.10610193
  C  2.44209383 -0.22265585 -0.57613661
  H  3.27793204 -0.72490152 -0.06000912
  H  1.21888481 -0.69167673  1.18855461
  H  0.99139599 -1.48057607 -0.37669860
  C -1.23075063 -0.23604331 -0.53412769
  N -2.26434423  0.02819226  0.12357212
  H -3.11373953 -0.46086006 -0.14045020
  H -1.14661908 -0.95124286 -1.36489465
  H  0.32753423  1.07503284 -1.08087201
  H -1.07586591  1.28718007  1.13751975
