17
opt_min/./Product_10316_0_opt.xyz
  C -1.56975500 -0.84714500  0.34806200
  C -0.99281556  0.42057890  0.96694089
  C -0.00517880  1.12855400  0.03231294
  C  1.22893317  0.25795592 -0.27391313
  C  0.93679188 -0.95204289 -1.10309156
  O  1.55572695 -2.01334903 -0.74795486
  H  2.14411381 -1.96009078  0.04770825
  H  1.74527020  0.01216212  0.67294793
  H  1.91995250  0.85482773 -0.88077280
  O -0.70832822  1.49540330 -1.12930066
  H -0.08319307  1.74041003 -1.81805715
  H  0.36029651  2.03777780  0.54812887
  H -0.48439706  0.19714490  1.90691098
  H -1.80244763  1.11913401  1.17463085
  H -2.45412406 -1.16808822  0.89275391
  H -0.85180464 -1.66223682  0.36347975
  H -1.84649771 -0.65391310 -0.68300967
