14
opt_min/./Product_8892_0_opt.xyz
  O  2.10903100 -1.29938100  0.76513700
  C  1.13419317 -0.71220573  0.39555307
  C  1.05069370  0.29698014 -0.77734520
  H  1.23280603 -0.16492210 -1.75012826
  H  1.73833424  1.12426853 -0.61188801
  N -0.33653594  0.72210252 -0.57843815
  H -0.69327930  1.42847639 -1.21914628
  C -1.07430223 -0.52869729 -0.35719385
  H -0.94744954 -1.28043779 -1.14573258
  H -2.13234231 -0.34037933 -0.18320524
  C -0.25525744 -0.64622000  0.92728254
  H -0.53679916 -1.30209541  1.74193806
  C -0.29868719  0.93961001  0.98973512
  H -1.35054445  1.19070297  1.25046081
