21
opt_min/./Product_9776_0_opt.xyz
  C  0.94575200  1.67197300  0.52178500
  C  0.45550427  0.41040374 -0.20471921
  C  1.59942562 -0.55266501 -0.28762268
  C  2.20638245 -0.91527631 -1.40080661
  H  3.03989116 -1.59926802 -1.40294898
  H  1.89794921 -0.54844323 -2.36596015
  H  1.93198640 -0.94125229  0.66729293
  C -0.73613551 -0.24205747  0.53174267
  C -1.91223325  0.73135213  0.66445924
  H -2.09637885  1.21701406 -0.29124149
  H -1.71383624  1.49857226  1.40413130
  H -2.80913516  0.19399915  0.95607469
  C -1.19236165 -1.48436869 -0.22518890
  H -1.66685406 -1.20020062 -1.16122864
  H -0.35038288 -2.13469583 -0.44612345
  H -1.91582800 -2.04247103  0.36282668
  H -0.40198916 -0.52895833  1.53089295
  H  0.13701357  0.67921003 -1.21408694
  H  1.82135691  2.07383629  0.02192959
  H  0.17105556  2.43160502  0.52975443
  H  1.20314007  1.43855970  1.55061387
