12
opt_min/./Product_2290_0_opt.xyz
  O  3.49960400  0.61222300  0.48329100
  C  2.45924063  0.15474871  0.22321359
  C  1.30985063 -0.32708957 -0.11959787
  C  0.03151196  0.48201924 -0.08566633
  C -1.16276242 -0.41118530  0.26036266
  O -2.38630298  0.28013149  0.23070490
  H -2.36268021  0.99195142  0.87957330
  H -1.27289328 -1.19289041 -0.49550205
  H -1.00996777 -0.88718998  1.23836627
  H  0.10403989  1.29163071  0.64291985
  H -0.15602349  0.94230501 -1.05840524
  H  1.22412079 -1.37563477 -0.34189875
