13
opt_min/./Product_8027_0_opt.xyz
  O -0.91182625 -1.63272800 -0.40446165
  C -0.71384602 -0.42040963 -1.07993555
  C -0.09580786  0.68770565 -0.19872720
  C -1.07054541  1.14881706  0.85143203
  C -2.09515046  1.92556097  0.92166262
  H -0.94734826  0.69916308  1.84109363
  C  1.14044813  0.21366044  0.39385926
  C  2.11866212 -0.25324405  0.90257091
  H  2.99119963 -0.63406836  1.34492104
  H  0.12685980  1.54630987 -0.85178878
  H -0.04365937 -0.58576384 -1.94454249
  H -1.69087102 -0.09781268 -1.44216226
  H -0.08878950 -1.88832484  0.03111949
