10
opt_min/./Product_5432_0_opt.xyz
  N  1.69003400 -0.28762700 -0.03061100
  C  0.66797974  0.57887848  0.07140015
  O  0.78670162  1.78148110  0.17182944
  C -0.71468618 -0.05076657  0.02564877
  O -0.72717007 -1.38632138 -0.07267198
  H -1.65016502 -1.68043936 -0.09127249
  N -1.79079694  0.60122033  0.07166417
  H -1.65968178  1.60430198  0.15719693
  H  1.52810831 -1.27683998 -0.10313612
  H  2.63627646  0.05425408  0.01075480
