11
opt_min/./Product_2420_0_opt.xyz
  C  1.33523000 -0.19770600  0.02658900
  C -0.00200548  0.51774827  0.09123095
  H  0.08345898  1.51933274 -0.32931547
  C -1.25662758 -0.24175785 -0.38156026
  H -1.11772383 -1.27902820 -0.68888665
  H -1.89573314  0.26906595 -1.10463269
  O -1.76387532 -0.13010627  0.94499179
  C -0.73402684  0.51045781  1.44287147
  H  1.73811104 -0.16007333 -0.98310554
  H  1.23022249 -1.23782179  0.32499611
  H  2.03168498  0.29001406  0.70240445
