8
opt_min/./Product_5048_0_opt.xyz
  N -1.10626997  0.31460204 -0.16147616
  C  0.07074344 -0.51255126 -0.17442482
  N  1.25041153  0.14665342  0.24544375
  C  2.19529747  0.73835473  0.57920652
  H  0.23223947 -0.86457024 -1.19954275
  H -0.08146595 -1.36965133  0.48940209
  H -0.97146000  1.14042802 -0.73509714
  H -1.34584913  0.61813171  0.77602783
