14
opt_min/./Product_11418_0_opt.xyz
  O  2.51444200  0.00667900 -0.59403500
  C  1.23174072 -0.13675327 -0.24189918
  N  0.61811913 -1.22601224 -0.42750445
  C -0.77263424 -1.26451062 -0.02804043
  H -1.23254536 -2.10459049 -0.54835727
  H -0.81481782 -1.46265018  1.05535018
  C -1.47327200  0.03023733 -0.31963998
  H -2.46952413 -0.00216773 -0.73418689
  C -0.80845498  1.16562758 -0.15407710
  H -1.20982653  2.12361890 -0.43217511
  C  0.59251839  1.08240322  0.38095945
  H  1.18563654  1.97662369  0.20219174
  H  0.55765033  0.88834272  1.45853524
  H  2.81839783 -0.80844570 -1.02113522
