9
opt_min/./Product_9011_0_opt.xyz
  N  1.48079908 -2.62686796 -0.55985799
  C  0.91315731 -1.63046325 -0.55162720
  C  0.21129884 -0.41582544 -0.50013977
  C -0.11861907  0.16336278  0.79141750
  N -0.79419251  1.22547362  0.86463999
  H -0.97497759  1.56563801  1.80349957
  H  0.28629430 -0.42387201  1.62394557
  N -0.12967796  0.14565294 -1.59641490
  N -0.41050059  0.66128287 -2.55034020
