14
opt_min/./Product_5163_0_opt.xyz
  C -1.50931400 -0.68487200  0.10278600
  C -0.63421457  0.51150627 -0.24084682
  C  0.75642095  0.46670449  0.44042458
  O  1.37098661  1.72781405  0.41822715
  H  1.90840635  1.77638636 -0.38650269
  C  1.60704714 -0.54861897 -0.27779747
  O  2.50607537 -0.24688636 -1.01348896
  H  1.31319903 -1.59833000 -0.10784841
  H  0.63195889  0.18034004  1.49157819
  H -1.11628064  1.43009150  0.10234375
  H -0.50143655  0.58797700 -1.32408223
  H -2.47979687 -0.58239149 -0.38186610
  H -1.06092527 -1.61664784 -0.23427418
  H -1.66839960 -0.74413698  1.17807355
