16
opt_min/./Product_9589_0_opt.xyz
  C -1.50734000  0.97557600 -1.17460900
  C -1.06541622 -0.15870579 -0.63388015
  C -1.99434675 -1.24783104 -0.18569916
  H -3.02299396 -0.90748405 -0.23325073
  H -1.88842357 -2.11861933 -0.83059239
  H -1.77611120 -1.55199941  0.83714274
  N  0.27660836 -0.47949881 -0.49305052
  C  1.30509941  0.50944418 -0.65565632
  C  2.66298435  0.01102664 -0.25376398
  O  3.67544552  0.64645762 -0.32713209
  H  2.66541361 -1.02772465  0.13414842
  H  1.09720488  1.42666814 -0.07746197
  H  1.35835961  0.81544606 -1.70868482
  H  0.47163262 -1.18631537  0.19851081
  H -0.85150670  1.75501566 -1.51548285
  H -2.55709835  1.14927333 -1.31252511
