15
opt_min/./Product_9891_0_opt.xyz
  C -2.56650700  0.68418900  0.43904600
  C -1.87223126 -0.55856325 -0.05501541
  H -2.12596432 -1.46606935  0.47896763
  C -0.58872068 -0.48620006 -0.74110002
  C  0.82520744 -0.30963249 -0.73416010
  N  1.43037487 -0.07249017  0.34937806
  C  2.84909913  0.08658172  0.36650289
  H  3.20020528  0.76985500 -0.41220066
  H  3.34496177 -0.87481364  0.20954223
  H  3.13931410  0.47104024  1.34275524
  H  1.31413735 -0.38849438 -1.71816691
  N -1.56883584 -0.70950402 -1.51440668
  H -2.29920648  0.87157249  1.47671955
  H -3.64572776  0.56310771  0.37413891
  H -2.27197155  1.54519391 -0.15597368
