13
opt_min/./Product_8305_0_opt.xyz
  C  2.12426700  0.88070000 -0.27664400
  O  1.15153235  0.03832362 -0.88055830
  C  0.04093240 -0.12504326 -0.19830349
  N -0.24081859  0.38466327  0.95669994
  C -1.51204927 -0.09168677  1.23496350
  H -2.00673202  0.17940505  2.15044837
  N -2.05706066 -0.85316903  0.36774584
  C -1.09913445 -0.98005957 -0.70067244
  H -0.81005691 -2.02408791 -0.83354675
  H -1.52316569 -0.62304485 -1.63975721
  H  2.96731833  0.91239453 -0.96436326
  H  2.43294129  0.47401680  0.68782531
  H  1.71928496  1.88136082 -0.12083614
