14
opt_min/./Product_10563_0_opt.xyz
  C -2.45329400  0.81011100  0.64187800
  C -1.77283951 -0.42024579  1.05613188
  C -0.68525416 -0.80433800  0.08022340
  O  0.48270314 -0.15427906  0.58624726
  C  1.61815332 -0.40758005 -0.10267785
  O  1.68345504 -1.08205977 -1.09554201
  N  2.66302141  0.23351237  0.47270079
  H  2.56099356  0.72641836  1.34022356
  H  3.57528702  0.12633279  0.06780849
  H -0.52360413 -1.88919539  0.08022541
  H -0.85928827 -0.47444491 -0.95814518
  H -3.04026136  0.58806532 -0.25355310
  H -1.72469763  1.56760315  0.33511343
  H -3.11292525  1.19734884  1.41584735
