12
opt_min/./Product_6215_0_opt.xyz
  C  2.16611800  0.31198000 -0.02947200
  O  1.44885001 -0.74648549  0.15063088
  C  0.17030198 -0.84603635  0.24761181
  C -0.75308740  0.33228887  0.21490484
  C -2.18466655 -0.07680649  0.42433227
  O -2.55034401 -0.97582767  1.12462426
  H -2.90919551  0.53957287 -0.14632907
  H -0.65151057  0.89952422 -0.71730750
  H -0.50073963  1.02005802  1.03944236
  H -0.20111745 -1.83249417  0.45659746
  H  1.74715659  1.29930143 -0.11358915
  H  3.22269804  0.14864298 -0.10403781
