10
opt_min/./Product_368_0_opt.xyz
  N -1.84683100  0.69184000  0.11177700
  C -0.93782839 -0.22636796 -0.16994971
  N -0.53306807 -1.14559091 -0.91849446
  C  0.30561150 -0.86397903  0.30985778
  N  1.52158375 -0.20463943  0.24827246
  N  1.69967211  0.62406465 -0.67824761
  H  2.64071472  1.02862874 -0.57736441
  H  0.28508689 -1.59211259  1.11310039
  H -1.67881807  1.35805713  0.84804632
  H -2.47841218  0.95437129 -0.62956004
