11
opt_min/./Product_10475_0_opt.xyz
  C -1.23359578 -0.72964404 -0.25402149
  C -0.24819830  0.29290989  0.25256817
  O -0.77535135  1.39149599  0.90541020
  H -1.66898353  1.55076946  0.57513250
  C  1.03768317  0.16484542  0.08329247
  C  2.31080676 -0.01270796 -0.08951076
  H  2.92236517 -0.48803940  0.66176709
  H  2.80566316  0.33873093 -0.98164035
  H -2.08112868 -0.80123767  0.42817004
  H -1.60260868 -0.44584611 -1.24267917
  H -0.75945778 -1.70483830 -0.33200902
