11
opt_min/./Product_3141_0_opt.xyz
  C -0.72494500 -0.71389200  0.25505200
  H -0.89193882 -0.97590420  1.30942624
  H -1.23296956 -1.46737514 -0.34766487
  C -1.27443319  0.62653246 -0.20504664
  H -2.21810903  0.75943541 -0.69043677
  C -0.35220343  1.51922349  0.05971619
  N  0.85933787  1.54295253  0.35000137
  C  1.49350942  0.38822089 -0.10713769
  H  2.54732289  0.43981786 -0.32045828
  C  0.76944296 -0.74016440 -0.03908357
  H  1.23541997 -1.70693564 -0.13203394
