12
opt_min/./Product_7456_0_opt.xyz
  O -2.57056600  0.17821700 -0.28423000
  C -1.38895530  0.02568930  0.44620436
  C -0.21500598 -0.25286440 -0.37941167
  N  0.29648692 -0.32219027 -1.51530131
  C  1.20664239 -0.63296444 -0.34902723
  C  2.22088254  0.36354451  0.01820754
  O  3.22510886  0.12400209  0.63175296
  H  1.97140130  1.39125485 -0.31685140
  H  1.47258956 -1.67266378 -0.18722578
  H -1.55437565 -0.81244231  1.13507216
  H -1.16305317  0.91855170  1.05825902
  H -2.43464452  0.79795420 -1.01084082
