15
opt_min/./Product_4588_0_opt.xyz
  C  0.69281600  0.41158200 -0.92045100
  H  0.33787719 -0.06014839 -1.83119011
  H  1.21798170  1.33521500 -1.14607757
  C -0.40732370  0.56947044  0.15486704
  C -1.75725410 -0.02855620 -0.21528843
  H -2.38892023 -0.07751016  0.67132419
  H -2.26183967  0.56565254 -0.96864795
  H -1.62314185 -1.04363781 -0.57910377
  H -0.55515545  1.59916476  0.48499271
  C  0.42751492 -0.29342668  1.12570275
  H -0.07112283 -1.19996958  1.45610384
  H  0.79104835  0.25121995  1.99452385
  C  1.48415664 -0.50895539  0.02664372
  H  1.55753079 -1.53948604 -0.30878190
  H  2.47599601 -0.14723354  0.27736460
