14
opt_min/./Product_5253_0_opt.xyz
  C -0.49797000 -1.16469800 -0.24121600
  H -1.20657488 -1.83413325 -0.72610121
  H  0.14154082 -1.75447893  0.41666132
  C  0.22529482 -0.25665891 -1.21943987
  H  0.44555582 -0.49098800 -2.24914509
  C  1.16984314  0.73716179 -0.49298674
  C  1.79644336  0.64966747  0.75572190
  H  1.23155816  0.03302238  1.47250898
  H  1.66536736  1.37537236 -1.22592279
  C -0.37900475  0.93459447 -0.61898074
  H -0.71132654  1.86957737 -1.04230614
  C -1.15759280  0.08707690  0.37126122
  H -0.97860690  0.28344979  1.42733476
  H -2.22941169  0.13113736  0.18381026
