14
opt_min/./Product_7393_0_opt.xyz
  C  2.37960258  0.95533235  0.68956925
  C -12.86914317  3.86157314  14.38941254
  C -17.60622509 -6.11308757  9.32868964
  O -2.84693269  29.04143707 -21.46125914
  C  7.09640443 -16.20921904 -28.29146034
  N  19.04000308  21.82483184  0.00741854
  C  1.89151921 -22.41841699  11.50169600
  H -26.70506288  20.93310975 -19.05525634
  H  6.66729670 -7.04041100  7.34900072
  H -30.68705164  6.82386395  4.03156749
  H -34.27857015 -14.85493435 -65.06894663
  H  17.45258066  6.33598115  3.37311601
  H -3.95991020  9.94740144 -6.24321999
  H -5.01454100 -5.15474652 -3.54693159
