13
opt_min/./Reactant_9472_0_opt.xyz
  O -1.67748300  1.26730700 -0.75872400
  C -1.41807580  0.34167289  0.23624400
  H -1.97742957  0.51688002  1.15309061
  C -1.14897631 -1.08253179 -0.17051348
  H -1.53817146 -1.88491336  0.43299456
  H -1.11828978 -1.27071448 -1.23141340
  C -0.03891879 -0.24372668  0.39165879
  O  0.95530387  0.22079388 -0.49837749
  C  2.20151898  0.25213712 -0.06586711
  O  2.60532548 -0.06040672  1.01442264
  H  2.84414786  0.62618521 -0.88195055
  H  0.33852239 -0.45679313  1.38470541
  H -0.96326469  1.91422840 -0.80131572
