15
opt_min/./Product_10435_0_opt.xyz
  N  1.45924200 -1.19924300  0.17704700
  C  1.46598781  0.18870242 -0.07212155
  O  2.73312154  0.73779790 -0.32468791
  H  2.81542131  1.59281424  0.10705202
  C  0.35924664  0.93570943 -0.14495838
  N -0.90785729  0.48030113  0.03120067
  C -2.25923445  0.81712111  0.18110121
  H -2.80845833  1.18783308 -0.68147163
  H -2.57990406  1.25674738  1.12297655
  C -1.78088523 -0.60746553  0.17760387
  H -1.96534313 -1.22963919 -0.69331472
  H -1.75866415 -1.16147328  1.11127659
  H  0.42618282  1.99280093 -0.36374968
  H  1.48896249 -1.74681010 -0.67698301
  H  2.24572829 -1.46274063  0.76021818
