11
opt_min/./Product_3061_0_opt.xyz
  O  0.60495712 -2.13427897  0.40366999
  C  0.98824870 -1.00554886  0.28082062
  C  0.45023763 -0.03706814 -0.74730431
  C -0.92847584  0.47209507 -0.28074207
  C -0.80859718  1.22666036  0.94162771
  N -0.69824988  1.81856571  1.91248810
  H -1.59792032 -0.37407162 -0.10009206
  H -1.37076130  1.11216329 -1.04737308
  H  1.12875845  0.80136947 -0.89350221
  H  0.31898871 -0.57660284 -1.68690312
  H  1.75668507 -0.59544800  0.96459148
