12
opt_min/./Product_7455_0_opt.xyz
  O  0.58009874  2.20494170  0.85251966
  C  0.74629418  0.81820654  0.69232250
  C -0.53689918  0.12360153  0.37625888
  C -0.66275156 -0.89515793 -0.47687026
  N -1.77057891 -1.66107319 -0.88296646
  O -0.93094993 -2.39086684 -1.68555960
  C  0.16737121 -1.71813530 -1.36381475
  H  1.15369543 -1.88508280 -1.73330835
  H -1.41572811  0.50258660  0.88083192
  H  1.09841035  0.46078914  1.66917244
  H  1.50970814  0.58483854 -0.06101674
  H  0.23902393  2.58504534  0.03397719
