14
opt_min/./Product_11415_0_opt.xyz
  O  3.80743200  0.68677500 -1.85880600
  C  2.93727206  0.61489742 -1.09499733
  N  2.14284954  0.37415166 -0.24716507
  C  0.93086710  0.74811323  0.38792055
  C -0.20183482 -0.20697321 -0.01879712
  C -1.46608989  0.13550103  0.70323626
  C -2.59714294  0.47049253  0.11511339
  H -3.48623126  0.70933777  0.67488629
  H -2.69827650  0.51598403 -0.95761726
  H -1.39713283  0.09746478  1.78298136
  H  0.10340047 -1.22643761  0.23249772
  H -0.35213022 -0.14752379 -1.09813787
  H  1.10127053  0.69433676  1.46699414
  H  0.65918395  1.77542841  0.11595397
