15
opt_min/./Product_6429_0_opt.xyz
  C -1.74603000 -1.01701200 -0.00619800
  O -0.53617562 -0.50535825 -0.51845419
  C -0.05518222  0.63190064  0.14294404
  O -0.70826971  1.80133806 -0.22387528
  H -1.66260521  1.66492291 -0.21539641
  C  1.45423726  0.80235630 -0.15678271
  C  2.24610552 -0.47397807 -0.12100687
  H  2.84759946 -0.53937638 -1.02533247
  H  2.93153944 -0.43303724  0.72691711
  H  1.60241789 -1.34286178 -0.04104288
  O  1.93262169  1.88221010 -0.35132432
  H -0.12857511  0.47120816  1.24581583
  H -1.64595961 -1.26855238  1.05781056
  H -1.95668815 -1.91931321 -0.57855388
  H -2.58176993 -0.31635907 -0.13055349
