15
opt_min/./Reactant_6429_0_opt.xyz
  C  2.66286000  0.06245500 -0.45374500
  O  1.35685246 -0.48439280 -0.34588020
  C  0.46511610  0.25154891  0.29801650
  O  0.70823507  1.31955219  0.79876906
  C -0.90688627 -0.41669757  0.37670587
  C -2.00523017  0.63886950  0.26272467
  H -1.75255972  1.48282451  0.89796918
  H -2.07752064  0.97979767 -0.76859511
  H -2.96663717  0.23052347  0.56884182
  O -0.99023356 -1.41377346 -0.61153663
  H -1.90169182 -1.72159469 -0.66693726
  H -0.94746277 -0.87513660  1.38529659
  H  2.66503364  0.89490483 -1.16043473
  H  3.30621969 -0.73783866 -0.81235351
  H  3.00032865  0.41827931  0.52264884
