14
opt_min/./Product_263_0_opt.xyz
  C -1.58278300 -0.86000000  0.44972000
  C -0.49894693  0.11618469  0.82868639
  H -0.37105854  0.25246278  1.89497854
  C -0.21038064  1.30669934 -0.03550907
  H -0.77384103  1.44780888 -0.94461159
  H  0.08689005  2.22273104  0.45035311
  C  0.76450888  0.16609034  0.01510732
  O  1.97869689  0.38621723  0.70176581
  C  3.05836914 -0.22010046  0.45645215
  H  2.95587401 -0.95209750 -0.38983333
  H  0.85953009 -0.49560366 -0.84240369
  H -1.66667594 -0.94204318 -0.63122232
  H -1.37063726 -1.84676227  0.85745439
  H -2.54034746 -0.52740794  0.84477834
