11
opt_min/./Product_887_0_opt.xyz
  N  1.84908600 -1.14590501 -1.92670599
  C  1.54450159 -0.41194310 -1.09965249
  C  1.19737505  0.50720832 -0.09021008
  C -0.01156018  0.57721648  0.46386351
  C -1.17284684 -0.30582702  0.13209894
  O -1.77180908 -0.86572180  1.27554399
  H -2.06945911 -0.15922286  1.86170901
  H -1.90930501  0.27700486 -0.44513145
  H -0.85284455 -1.15561596 -0.47808813
  H -0.19999387  1.31839285  1.23298691
  H  1.99299291  1.18143588  0.19868347
