13
opt_min/./Product_6389_0_opt.xyz
  C -1.16470000  0.12877400  0.38626600
  H -2.19414059 -0.12340218  0.15101535
  H -1.04528135  0.38113491  1.43675530
  C -0.17669418 -0.84855029 -0.26127837
  H -0.43906370 -1.89988760 -0.38727193
  O -0.20031363 -0.08393704 -1.47256219
  C -0.54893989  1.06980691 -0.67244750
  H -1.16267815  1.79339198 -1.20218539
  C  0.66326717  1.65683853  0.01779254
  O  1.46438165  0.77933139  0.45858311
  C  1.21562457 -0.64665112  0.32885908
  H  1.33778037 -1.08431020  1.32027011
  H  1.97515451 -1.04748632 -0.34752629
