11
opt_min/./Product_2657_0_opt.xyz
  C  1.79037900 -0.25694200 -0.09167500
  N  0.49581625 -0.03890216  0.02921343
  C -0.13487163  1.10758914  0.49931335
  H  0.39561183  1.95382294  0.87797096
  N -1.43663765  1.03523008  0.43602293
  N -1.70008349 -0.16077914 -0.05498661
  H -2.64362687 -0.46247338 -0.22045536
  C -0.54454913 -0.85221547 -0.30679385
  H -0.48319461 -1.81055108 -0.76547526
  H  2.48438448  0.46261568  0.28511379
  H  2.12176371 -1.21856230 -0.42448181
