12
opt_min/./Product_3838_0_opt.xyz
  N  2.72498497 -1.73797298  0.61485319
  C  1.82830153 -1.32709896  0.02962203
  N  0.83862722 -0.82463439 -0.68451652
  C  0.26956267  0.46015552 -0.29672244
  C -0.55243704  0.36796829  0.95708490
  C -1.81346024  0.74552524  1.04145099
  H -2.37652974  0.66303396  1.95538956
  H -2.33663403  1.16762312  0.19746615
  H -0.03454930 -0.05633541  1.80788293
  H  1.10350698  1.15584942 -0.13854530
  H -0.33640332  0.82219759 -1.13307197
  H  0.16876044 -1.50868348 -1.01677721
