11
opt_min/./Product_1634_0_opt.xyz
  N  2.03180000  0.61416100 -0.43197100
  C  0.67423477  0.43718781 -0.48334800
  O  0.07746677  0.46100477 -1.55105695
  C  0.04947770  0.23800433  0.80251922
  O -1.22422891  0.00307160  0.99576670
  C -2.17384071 -0.04322650  0.14259676
  H -3.15122530 -0.24125097  0.54816835
  H -2.02418867  0.10233112 -0.91390545
  H  0.62813391  0.21405175  1.71221733
  H  2.52525063  0.64315002 -1.30922402
  H  2.56527453  0.45194114  0.40277435
