9
opt_min/./Product_3177_0_opt.xyz
  O -0.51369592  0.60934697 -1.59347907
  C -0.13583892  0.08639559 -0.37605930
  C -1.03201463 -0.70972597  0.41572392
  O -0.77519099 -1.22674895  1.48349297
  H -2.03092654 -0.80953490 -0.05433219
  N  1.07525190  0.28612449  0.01382897
  C  2.09002158  0.55469860  0.57048858
  H  3.06164611  0.11827362  0.57833701
  H -1.35176032  1.07987959 -1.51945689
