11
opt_min/./Product_8740_1_opt.xyz
  N  2.07825600 -0.00330600 -0.02972200
  C  0.80946811 -0.15219954  0.50168215
  O  0.61344789 -0.29561322  1.68739609
  N -0.18218989 -0.08418956 -0.42961423
  C -1.57025170 -0.01871586 -0.04428928
  H -1.95946867  1.00172822 -0.10512092
  H -2.16898212 -0.66873209 -0.68221562
  H -1.63274905 -0.35772554  0.98797054
  H  0.05325900  0.16305459 -1.37663608
  H  2.23217899 -0.24402185 -0.99451725
  H  2.82625817 -0.25792844  0.59407356
