12
opt_min/./Product_10549_0_opt.xyz
  O -18.50441347 -0.83583556  12.37492786
  C -14.75239222 -4.38721632  23.13432641
  C -2.97886398 -21.40980799  12.53727795
  O -29.20061968  1.23316233  10.83159290
  C -23.22151553  0.59266328  28.54733215
  N -4.35082012 -1.01098097  21.25172321
  C -14.56499312 -6.35775593  13.32049937
  H -32.95583192 -7.45656774  6.42589092
  H -26.86552754  13.49010337  21.63534677
  H -12.98776330 -2.73056217 -2.07551479
  H -5.45301725  7.30580291  15.99051287
  H -17.61260895  11.94654150  18.63808078
