14
opt_min/./Product_6256_0_opt.xyz
  C  1.73956000 -0.45586400 -0.19621600
  C  0.39471540 -0.35635863  0.51261152
  H  0.51188716 -0.63752365  1.56543021
  C -0.26572126  1.03603195  0.36929966
  H  0.33441166  1.69676669 -0.25932318
  H -0.40084525  1.52482387  1.33414097
  C -1.57507807  0.68561154 -0.28617321
  H -2.32759601  1.40023272 -0.54669858
  C -1.60841086 -0.62214619 -0.49325780
  H -2.37716210 -1.22083709 -0.94763531
  O -0.51868035 -1.30562130 -0.06846249
  H  1.61025567 -0.23335339 -1.25335869
  H  2.14602717 -1.45801858 -0.10035796
  H  2.43942968  0.25621701  0.23233647
