11
opt_min/./Product_868_0_opt.xyz
  N  2.85799100  0.36778400  0.28878500
  C  1.70876481 -0.01093428  0.38207538
  C  0.46453707 -0.37533358  0.38673006
  C -0.60649932  0.26709016 -0.45050978
  C -1.92598096 -0.43245684 -0.30884157
  O -2.15160659 -1.39179517  0.37051905
  H -2.71657827  0.02928633 -0.93706592
  H -0.76342970  1.31576170 -0.17139906
  H -0.33926432  0.26228503 -1.51407399
  H  0.16052947 -1.24603915  0.94869899
  H  3.25643890  1.05338564  0.91716508
