13
opt_min/./Product_4878_0_opt.xyz
  C -1.94520500  0.10665000  0.54570800
  C -0.68919696  0.25931402 -0.30109625
  C  0.53938462 -0.22918833  0.43379877
  O  0.56378516 -0.59276839  1.56952175
  N  1.70668004 -0.17738849 -0.38276607
  C  2.88319580 -0.48644823  0.09752387
  H  3.65354531 -0.37300616 -0.68863411
  H  1.51816761  0.13515485 -1.34468594
  H -0.53416959  1.31340555 -0.55544985
  H -0.78229827 -0.30234894 -1.23841321
  H -1.75533665  0.48368132  1.54951159
  H -2.22524965 -0.94202195  0.62741851
  H -2.77371777  0.66323337  0.11296130
