17
opt_min/./Product_607_0_opt.xyz
  C  2.13477400  0.31111100  0.08892400
  C  1.13348117 -0.42330346 -0.80399252
  C -0.11952948 -0.88929611 -0.06244334
  N -0.95691238  0.24040208  0.30908645
  H -0.52721057  0.81821358  1.03418226
  C -2.40957283  0.10579395  0.46167607
  H -2.78958098 -0.90203225  0.33088454
  H -2.78742970  0.56704981  1.38061992
  C -1.87058046  0.82346253 -0.71807325
  H -1.89870812  1.91844903 -0.58226645
  H -0.71928249 -1.50754185 -0.73263885
  H  0.15173246 -1.47497620  0.82411252
  H  0.81240587  0.22200802 -1.62234702
  H  1.61022298 -1.30195542 -1.23841215
  H  2.81689005 -0.38948490  0.56511420
  H  2.72405991  1.01255117 -0.49452826
  H  1.63600039  0.87606598  0.87317364
