10
opt_min/./Product_2663_1_opt.xyz
  C -1.23307100  0.27002100  0.37242600
  N -0.31751668 -0.85939480  0.49020263
  C  0.97566995 -0.96656584  0.19783048
  N  1.56714586  0.12232274 -0.29174111
  H  2.54847715  0.07197299 -0.49689358
  H  1.12555363  1.02117858 -0.48088392
  H -0.75555184 -1.71100246  0.80381832
  H -1.97726941  0.21427403  1.16706576
  H -0.69017579  1.20798846  0.48260202
  H -1.74866846  0.27081623 -0.59283789
