17
opt_min/./Product_7820_0_opt.xyz
  C  2.55389300  0.26985800 -0.43114200
  C  1.36578399  0.71697231  0.43406674
  C  0.61010689 -0.46784017  0.94948144
  C -0.65903184 -0.80336120  0.70152253
  C -1.61100106 -0.09472254 -0.11199421
  C -2.86692665 -0.51219511 -0.28732978
  O -3.81983273  0.08958547 -1.03611618
  H -3.45122044  0.88247988 -1.44762590
  H -3.24329084 -1.41140232  0.17865641
  H -1.29223317  0.81720594 -0.60297926
  H -1.04597736 -1.71013934  1.15136056
  H  1.20051388 -1.12198798  1.57669156
  H  0.71664377  1.37080580 -0.14619121
  H  1.73616279  1.28920862  1.28670308
  H  3.40132714 -0.01063729  0.18678582
  H  2.27496932 -0.58996740 -1.03452019
  H  2.86685026  1.06669497 -1.09946204
