11
opt_min/./Product_9937_0_opt.xyz
  C -1.13175200 -0.91415200  0.21360300
  C  0.29193952 -0.64236820  0.62173678
  O  0.83222296 -1.13904575  1.57243126
  C  0.40449612  1.10518988 -1.07819712
  O -0.22138665  1.76453740 -1.81007044
  C  1.04384201  0.29789281 -0.27089951
  O  2.40642650  0.32564531 -0.04070222
  H  2.81020905  1.11154592 -0.42276537
  H -1.64313857  0.00068321 -0.07364706
  H -1.65625889 -1.39484579  1.03510849
  H -1.13435810 -1.58316012 -0.64548360
