11
opt_min/./Reactant_626_0_opt.xyz
  O  1.15921514 -1.74160401  0.40563958
  C  0.21585883 -1.22863170  0.95101258
  N -0.42755051 -0.13021804  0.51139646
  C  0.05042928  0.62470460 -0.63350250
  C  0.35259546  1.99998051 -0.28133268
  C  0.59379978  3.11787062  0.07082338
  H  0.80583483  4.10891982  0.34966471
  H  0.95873840  0.11378886 -0.96935289
  H -0.69939116  0.61033138 -1.43453763
  H -1.15941747  0.29515220  1.05978791
  H -0.24513696 -1.63105109  1.87098961
