12
opt_min/./Product_11219_1_opt.xyz
  N  2.37714700 -0.19317900 -0.21172600
  C  1.16424144 -0.19018029  0.10217585
  O  0.51306852 -1.41509043  0.46279153
  C -0.73714233 -1.63302327  0.33968288
  C -1.59267007 -0.50051646 -0.16587605
  H -1.66772521 -0.71020615 -1.24108415
  H -2.60609462 -0.59032717  0.22594629
  C -1.00126188  0.84196270  0.05905041
  H -1.66496816  1.68426397  0.18731518
  C  0.32499538  0.98035760  0.15719931
  H  0.81685750  1.92389053  0.32490100
  H  2.83295025 -1.09976253 -0.14513060
