13
opt_min/./Product_8522_0_opt.xyz
  O  2.42718100 -1.18633900  0.36842400
  C  1.43097862 -0.53480795  0.10013958
  C  1.45031391  0.82961112 -0.31219170
  H  2.37241047  1.33392151 -0.54713297
  O  0.35807780  1.51200331 -0.60287996
  C -0.82452679  1.11428259 -0.30642554
  H -1.62416534  1.77618746 -0.59562215
  C -1.02589882 -0.13402559  0.47814633
  H -0.89338681  0.10282009  1.54385485
  H -2.03597330 -0.52152320  0.34797302
  C  0.02992829 -1.15784984  0.06543828
  H  0.00444107 -2.03277929  0.71408274
  H -0.14464926 -1.49574671 -0.96184955
