9
opt_min/./Product_8691_1_opt.xyz
  O  2.99225000 -0.26113500  0.06043200
  C  1.84682856 -0.18779748 -0.10265996
  C  0.55878976 -0.36412235 -0.25503908
  C -0.13025452 -1.69962873 -0.18777977
  N -1.41181132 -1.38906351 -0.39764925
  C -1.59250131 -0.11251030 -0.57500535
  H -2.54018933  0.36282853 -0.75964828
  N -0.44135548  0.57333124 -0.50212999
  H -0.29710847  1.56654016 -0.60174145
