17
opt_min/./Product_11556_0_opt.xyz
  C  2.22634900 -0.31722900 -0.42475300
  O  0.99810767 -0.65929295  0.18046874
  C  0.23628374  0.44166668  0.59219901
  C -1.19861834 -0.05126459  0.84740906
  C -1.85401463 -0.44895840 -0.43448907
  C -2.91203405  0.14552881 -0.94856298
  H -3.40152784  0.96854674 -0.45329778
  H -3.34548998 -0.16615148 -1.88377700
  H -1.36888099 -1.27258359 -0.94114950
  H -1.13561932 -0.91368778  1.51830840
  H -1.75199136  0.74961286  1.34161747
  O  0.78841196  1.04993550  1.72478032
  H  0.86919558  0.38294502  2.41972421
  H  0.23543687  1.22640237 -0.18128037
  H  2.05718714  0.25987904 -1.34088617
  H  2.71925665 -1.25878323 -0.66219797
  H  2.85321923  0.27261673  0.25384434
