12
opt_min/./Product_5299_0_opt.xyz
  O -1.13467800  1.30718800 -0.67459600
  C -0.57051294  0.44951236  0.29469016
  H -1.12144206  0.56090448  1.24003722
  C  0.89698460  0.76173075  0.46320992
  H  1.25801254  1.72513841  0.75171569
  C  1.59887083 -0.31007543  0.13192349
  H  2.66231444 -0.47333115  0.11358017
  O  0.87221218 -1.39861142 -0.21997461
  C -0.50599391 -1.02990359 -0.16275416
  H -1.00350603 -1.71036821  0.53218743
  H -0.93212151 -1.14194258 -1.16395346
  H -2.05337118  1.05528035 -0.82204744
