8
opt_min/./Product_5759_0_opt.xyz
  O  2.49843685 -0.98231575 -0.55695123
  C  1.36105099 -8.64080308  7.06113923
  N -24.25588241 -9.28548264 -3.84842641
  C  4.73042579  19.09475208  15.63918780
  C  11.44944446  0.70583238  16.05926258
  H -10.38494318 -0.65762629  13.82441212
  H -6.52517054 -0.21632733  8.84469321
  H -3.29463201  4.49332519  1.26754519
