10
opt_min/./Product_11275_0_opt.xyz
  O -2.63487900  0.60315600 -0.03573800
  C -1.81831410 -0.28176101  0.08074389
  C -0.39585707 -0.06390740  0.01794321
  N  0.24725520  1.10910927 -0.17273215
  H -0.24142486  1.98443974 -0.29466231
  C  1.60746033  0.97346935 -0.18079788
  C  1.71220791 -0.40831902  0.02572356
  H  2.58290643 -1.03051478  0.10142963
  O  0.51472806 -1.00992555  0.14165902
  H -2.09544575 -1.33622876  0.24581127
