15
opt_min/./Product_9076_0_opt.xyz
  C -2.18414800 -0.60733700  0.85674700
  N -1.03486973 -0.32790078 -0.08103752
  H -1.34391614 -0.94354965 -0.84392047
  C -0.84654800  0.97576501 -0.63141852
  H -1.69676199  1.53671051 -0.95820659
  C  0.48082305  1.26403828 -0.56111061
  H  0.97665072  2.15496565 -0.88764209
  C  1.10243018  0.11655131  0.00440908
  C  2.55168683 -0.07548218  0.26337579
  H  2.81247439  0.38758672  1.21733022
  H  3.15015595  0.39091453 -0.51579757
  H  2.77665176 -1.13587094  0.33785829
  N  0.22665405 -0.81992724  0.27411018
  H -2.17756789 -1.67996728  1.05840365
  H -3.09904638 -0.33704702  0.31822844
