18
opt_min/./Reactant_2972_0_opt.xyz
  C -1.30857800  0.35298200 -0.51984500
  H -1.03912527  0.63837944 -1.53735057
  H -2.38339423  0.50222110 -0.41720883
  C -0.55819404  1.25805639  0.45696657
  H -0.83981282  0.99447070  1.47918250
  H -0.82427682  2.30298825  0.29899517
  C  0.95306759  1.08084408  0.29327088
  H  1.47523840  1.71177821  1.01752285
  H  1.24520590  1.40244456 -0.70715497
  C  1.34640599 -0.37929094  0.49539479
  H  2.41990400 -0.50370126  0.33236869
  H  1.12336284 -0.68214356  1.51903473
  C  0.57664223 -1.28633270 -0.46625813
  H  0.86206735 -2.32525974 -0.29570567
  H  0.84291119 -1.03973035 -1.49594825
  C -0.92944345 -1.10153236 -0.28179534
  H -1.47716398 -1.76159641 -0.95148488
  H -1.19484333 -1.37920468  0.73845392
