12
opt_min/./Product_11026_0_opt.xyz
  C  0.39365600 -1.26338000  0.13310500
  H  1.09542855 -2.06408408  0.21156280
  C -0.88436808 -1.26794534  0.15051470
  C -1.76283252 -0.19291944  0.04443153
  H -2.83418593 -0.25925531  0.06585056
  N -1.18548651  1.00999288 -0.09482223
  H -1.78772577  1.82180556 -0.17564880
  C  0.12381524  1.23587543 -0.13690233
  H  0.44104652  2.25739241 -0.25287611
  C  1.12127877  0.22152094 -0.03922246
  C  2.38437700  0.22935133 -0.05690215
  H  3.29410737 -0.30349920 -0.01085732
