13
opt_min/./Product_9851_0_opt.xyz
  C -1.64391506  0.26083494  0.46856283
  H -2.64975486  0.32869262  0.83526998
  C -0.81616737  1.09252179 -0.16375373
  H -0.89644109  2.10309581 -0.51689740
  C  0.29012726  0.09864628 -0.20258616
  C -0.65464469 -0.88008222  0.52117704
  H -0.33215822 -1.17438370  1.51988471
  H -0.92744261 -1.76420579 -0.05455366
  C  1.74983153  0.27458961 -0.04724735
  H  2.16348670  1.27368222 -0.04500025
  H  2.29483568 -0.44589404  0.55304251
  N  1.17392508 -0.13848980 -1.31185886
  H  1.30290166 -1.12107170 -1.53525651
