11
opt_min/./Product_2689_0_opt.xyz
  C -1.47245593 -0.12864321  0.32528621
  C -0.17879693 -0.40759730 -0.36768606
  C  0.97674033  0.22943421 -0.13804928
  O  1.18355213  1.23691746  0.75399067
  H  0.36538111  1.40892307  1.23668867
  C  2.13441710 -0.14843269 -0.87355344
  N  3.05295550 -0.48560865 -1.46906421
  H -0.17879150 -1.20157022 -1.09848851
  H -1.52214786  0.88779479  0.71735073
  H -1.62094901 -0.82450057  1.15348779
  H -2.29951380 -0.26452085 -0.36879232
