12
opt_min/./Product_938_0_opt.xyz
  O  2.89782500  0.39879500  0.51016600
  C  1.78705449  0.41279892  0.05983300
  C  0.91437253 -0.78547368 -0.01015056
  H  1.41285538 -1.71368104  0.25698529
  C -0.55878601 -0.69961690  0.15269030
  C -1.28487355  0.59161313  0.46481476
  H -2.17511986  0.38125276  1.04703526
  H -0.66318242  1.28000001  1.03028761
  H -1.58375572  1.07462894 -0.46132346
  H -1.04226878 -1.60118641  0.51945043
  O  0.02789266 -0.85666828 -1.09636259
  H  1.33903105  1.33136023 -0.36235419
