12
opt_min/./Product_7469_0_opt.xyz
  N -1.12957300  1.02673900  0.02456200
  C -0.84538424 -0.27105236 -0.29548431
  C  0.60901681 -0.60280289 -0.34609614
  H  0.81354817 -1.56556193 -0.80002339
  N  1.43203502 -0.23949964  0.81845470
  H  1.62578553 -0.44823146  1.77574665
  C  1.66736220  0.46276337 -0.25585356
  O  2.28156668  1.34781118 -0.75695146
  N -1.66908926 -1.19447970 -0.55245717
  H -2.64474371 -0.90961915 -0.51968827
  H -0.39659445  1.69551425  0.17766163
  H -2.08029064  1.34283280  0.09915930
