8
opt_min/./Product_6212_1_opt.xyz
  C -1.02246200 -0.38732500  0.39226900
  H -1.65620985 -0.94130361  1.03941479
  C -0.84551421  0.62960424 -0.40442185
  H -1.20497664  1.50359995 -0.88533567
  C  0.34789293 -0.22686528 -0.16089297
  O  1.36349598  0.25911105  0.69043983
  H  2.21357510 -0.10482684  0.43959375
  H  0.70001932 -0.90057079 -0.94076493
