17
opt_min/./Product_10582_0_opt.xyz
  C -1.82337932  1.36410568 -0.25500282
  C -0.93648199  0.19124686 -0.68031749
  C -1.61966610 -1.13539971 -0.28858506
  H -1.61403205 -1.25701615  0.79175364
  H -2.65360906 -1.11425878 -0.62873084
  H -1.12487356 -1.98814354 -0.74733292
  C  0.29349926  0.16398114  0.13795303
  C  1.50150104 -0.23112797 -0.61358325
  C  2.74413705 -0.05572712  0.11427930
  C  3.77093038  0.09589409  0.70966211
  H  4.67113479  0.24208320  1.22683053
  H  1.35299220 -1.30654061 -0.79554931
  H  1.58651668  0.23629492 -1.60792109
  H -0.79948164  0.20481578 -1.77527316
  H -2.04393553  1.28349572  0.80590898
  H -2.75550858  1.36700453 -0.81497592
  H -1.30991318  2.30655820 -0.42811215
