10
opt_min/./Product_7309_1_opt.xyz
  O  2.21223200  0.12821200 -0.50221000
  C  1.37450937 -0.53765435  0.28517937
  C  0.00889773 -0.36757176  0.22203930
  N -0.68491986  0.21717737 -0.78126902
  N -1.90547831  0.27024790 -0.29518255
  H -2.64936351  0.67322626 -0.84721711
  C -1.94090285 -0.08905881  1.03483772
  N -0.77147141 -0.55233441  1.35270412
  H  1.76359040 -1.12184482  1.10987574
  H  3.13426812  0.01410439 -0.23923191
