10
opt_min/./Reactant_4064_0_opt.xyz
  N  1.76474800 -0.43475400 -0.01860700
  C  0.42347130 -0.08814417 -0.03166042
  C -0.22328596  1.09122740  0.17162565
  H  0.18224665  2.05990435  0.37267462
  N -1.57083697  0.87835131  0.08153728
  C -1.69704809 -0.38289160 -0.15652481
  H -2.62071290 -0.91553987 -0.26910176
  O -0.53874897 -1.04526904 -0.24853110
  H  1.89619100 -1.39796015  0.27204420
  H  2.24045440 -0.27114418 -0.89940898
