10
opt_min/./Product_136_0_opt.xyz
  O -0.14329800  1.34116700 -0.82758100
  C  0.63097735  0.43565465 -0.23954312
  C  1.79220566 -0.15575472 -0.20632387
  H  1.99587456 -0.91761039  0.52227150
  H  2.56732272  0.09446822 -0.90731442
  C -0.71678323  0.62472965  0.28967790
  C -1.76443975 -0.37895608 -0.01762689
  O -1.95640016 -0.89292955 -1.08085704
  H -2.36055396 -0.64280974  0.88114518
  H -0.85372507  1.22058981  1.18569874
