9
opt_min/./Product_3513_1_opt.xyz
  C  0.72168954 -0.50354292 -0.35680353
  N -5.78341792  4.11051703 -1.32851312
  C  4.60726792  27.90082654 -8.39483448
  H  28.15482894 -29.44129464  2.29307749
  H -28.15296636  28.47402693  14.85601813
  H -4.70712967  2.65109483 -11.38429450
  C -7.98029738  3.89604056  28.00933904
  H  28.53246919  10.87921429  0.56874943
  H  20.25137911  24.11502667  30.45679213
