13
opt_min/./Product_7849_0_opt.xyz
  O  2.65360300  0.02611200  0.04998100
  C  1.40173605  0.28992320  0.55098576
  H  1.20954820 -0.18880390  1.51182028
  O  0.88568031  1.56704531  0.42374304
  C  0.25482695  0.56343196 -0.33642949
  C -1.63070158 -1.02939567 -0.26940306
  C -1.10838098  0.14294347  0.07368761
  H -1.65461231  0.83555057  0.69908060
  O -2.82408774 -1.51228377  0.12912563
  H -3.30155902 -0.84423641  0.63930134
  H -1.09000466 -1.74392992 -0.87444799
  H  0.43441221  0.61791256 -1.40703204
  H  3.15992544  0.84696283  0.01464362
