15
opt_min/./Product_8913_0_opt.xyz
  C  2.09931600 -0.51805000 -0.04189500
  N  0.95401292  0.11172641  0.05544525
  C  0.69161875  1.41959421 -0.07993818
  H  1.45059151  2.14058252 -0.30419066
  C -0.68922590  1.66049363  0.09785586
  H -1.13918653  2.63119285  0.01562988
  C -1.32152311  0.49714209  0.37083405
  H -2.36692666  0.33837819  0.54377639
  C -0.29702042 -0.60696648  0.36902582
  N -0.48888442 -1.67665546 -0.59781064
  H -0.95766562 -1.31640021 -1.42091418
  H -1.06390302 -2.41293140 -0.21080977
  H -0.18980662 -1.05430831  1.36523922
  H  2.13483592 -1.58137057  0.07322668
  H  2.98160634  0.03046202 -0.31020767
