10
opt_min/./Product_6779_0_opt.xyz
  C -0.81712500  0.76038200 -0.41007500
  H -1.35871214  1.69328971 -0.55112902
  C -1.52401623 -0.42470393  0.13015476
  H -2.59176375 -0.37086919  0.31097003
  H -1.15263706 -1.38871881 -0.19244430
  N -0.60808695  0.30416590  0.96183028
  C  0.31679174  0.57584886 -1.35962333
  O  0.71722566 -0.47505458 -1.77021576
  H  0.76473210  1.53392805 -1.69408230
  H -1.05368235  0.89666379  1.65663616
