11
opt_min/./Product_10436_0_opt.xyz
  C -0.90786200  0.78212100  0.41603600
  O -1.64502204  1.52765543  0.99132798
  C -1.06778529 -0.55973382 -0.28282023
  H -1.13543789 -1.45125893  0.34134855
  H -1.87639486 -0.55560837 -1.01204717
  N  0.25207395 -0.36019213 -0.93058741
  C  1.22144888 -0.36233026  0.12343739
  H  2.25221424 -0.37170420 -0.20805846
  H  1.02954254 -0.91708075  1.03469927
  C  0.46360714  0.89005787 -0.15193976
  H  0.94276522  1.78085644 -0.52197750
