17
opt_min/./Product_6356_0_opt.xyz
  C -2.04001700 -0.59322900  0.50979400
  C -1.02320288 -0.42956544 -0.63927163
  C -0.12626234  0.75308245 -0.40383149
  O -0.76119692  1.96849001 -0.40398568
  H -1.70583550  1.82792194 -0.53546268
  C  1.18906680  0.73398858 -0.20258679
  C  2.09184125 -0.45810028 -0.13654819
  O  2.64957705 -0.64095114  1.15168359
  H  3.03119551  0.19721254  1.43631751
  H  1.56707533 -1.39019231 -0.34729402
  H  2.89993681 -0.34108125 -0.87643289
  H  1.67725983  1.68437389 -0.03419192
  H -0.42843012 -1.33364838 -0.74069462
  H -1.54925473 -0.28029176 -1.58661840
  H -3.06347701 -0.47610961  0.16206271
  H -1.85903422  0.14057761  1.29251104
  H -1.95080610 -1.57655725  0.96037933
