15
opt_min/./Reactant_8487_0_opt.xyz
  C  2.56693800 -0.09699900  0.52588600
  O  1.30028256 -0.50483636  0.02763692
  C  0.52740298  0.43533484 -0.52544965
  O  0.84289696  1.58851827 -0.63844482
  C -0.80945020 -0.14610311 -0.93769747
  C -1.87643165  0.25366448  0.09687955
  O -1.60602639 -0.24812965  1.37560408
  H -1.54651292 -1.21028940  1.33491737
  H -2.86041858 -0.08465986 -0.26291570
  H -1.89535529  1.34118639  0.20296919
  H -1.08942884  0.26346022 -1.90804609
  H -0.71947077 -1.23172639 -0.98902330
  H  2.51579101  0.93877140  0.86838054
  H  3.31653656 -0.17297344 -0.26578950
  H  2.81460273 -0.76885451  1.34473495
