12
opt_min/./Product_10074_0_opt.xyz
  N -0.78201200  1.21617100 -0.22810700
  C -0.32960269 -0.11268444 -0.13121790
  O  0.91571304 -0.32739458  0.52274322
  C  2.00242692  0.30618680  0.08997109
  O  2.08139097  1.16039275 -0.73346850
  H  2.85285509 -0.06828900  0.69115891
  C -1.27892842 -1.22070528 -0.00849595
  H -2.34022494 -1.01384050 -0.04048425
  H -0.97401438 -2.12005094  0.51012429
  O -0.56386320 -0.95302207 -1.19707860
  H -1.48945556  1.44657756  0.45678791
  H -0.03250535  1.89427052 -0.20257191
