17
opt_min/./Product_11644_0_opt.xyz
  O -1.27630400  1.41389600  1.41034700
  C -1.49476567  0.31198526  0.55692897
  C -0.17188294 -0.43433478  0.36174764
  C -0.37021134 -1.67547422 -0.50154237
  H -1.03797785 -2.37921288 -0.00930758
  H -0.79880946 -1.40422193 -1.46467060
  H  0.58580831 -2.16479742 -0.67145437
  C  0.85800224  0.50776633 -0.25962566
  O  2.14127604 -0.14469515 -0.33005008
  C  3.18693664  0.26515227  0.23077673
  H  3.04721127  1.21189566  0.81555271
  H  0.94259154  1.42462897  0.33674176
  H  0.57625703  0.76246649 -1.28740590
  H  0.19651441 -0.72704623  1.35163523
  H -1.87391692  0.65123218 -0.41904015
  H -2.23107657 -0.37719240  0.99220471
  H -2.12033652  1.82784549  1.61635738
