13
opt_min/./Reactant_6849_0_opt.xyz
  N  2.30025200 -0.27738000  0.20300700
  C  0.93649535  0.03079995  0.17014281
  C  0.34794890  1.26103050  0.29078244
  H  0.76349307  2.23219483  0.47300798
  N -1.01069574  1.10020235  0.11922662
  H -1.69317737  1.83851399  0.07118681
  C -1.26733074 -0.20465620 -0.11099781
  O -2.55704533 -0.59951663 -0.32256706
  H -2.56991613 -1.55472486 -0.45133134
  C -0.09673473 -0.90844234 -0.08166006
  H  0.02704071 -1.96523457 -0.21940264
  H  2.50884736 -1.11300838  0.73293240
  H  2.85950957  0.50702268  0.51262856
