16
opt_min/./Product_10833_0_opt.xyz
  C  2.62434600  0.16023500 -0.88346400
  C  1.68082325 -0.45963322  0.12234986
  H  2.08741249 -0.55884615  1.12245414
  C  0.23810573 -0.39508436 -0.04742171
  C -0.95692803  0.42985526  0.03821026
  C -2.22072856 -0.31663259 -0.42307116
  O -3.37529516  0.48388175 -0.37092590
  H -3.44323019  0.87865523  0.50528787
  H -2.11018455 -0.61672737 -1.46353251
  H -2.34949312 -1.22505329  0.18131695
  H -0.80820383  1.32725862 -0.56874866
  H -1.06851032  0.75719073  1.07824036
  N  0.72506711 -1.52595825 -0.31345369
  H  2.35321914 -0.15010208 -1.88896718
  H  2.58494390  1.24542480 -0.83340119
  H  3.64394197 -0.15294976 -0.68816548
