19
opt_min/./Product_9931_0_opt.xyz
  C -2.64814300  0.34204400 -0.14420000
  C -1.91289513 -0.84704630  0.46785366
  C -0.55661954 -1.07553338 -0.18979667
  O  0.27265937  0.03761766  0.05627554
  C  1.54498157 -0.07731664 -0.54142386
  C  2.33739917  1.15690871 -0.24713720
  C  3.53658335  1.15915805  0.30590275
  H  4.07192542  2.07329037  0.49102678
  H  4.02522415  0.23965561  0.57938769
  H  1.84540430  2.08151862 -0.51083301
  H  2.06797427 -0.97161202 -0.16457648
  H  1.42784481 -0.19003812 -1.63511419
  H -0.68335970 -1.21172298 -1.27628272
  H -0.09153170 -1.98899397  0.20957910
  H -1.75388756 -0.67389098  1.53053252
  H -2.50351164 -1.75563266  0.35205987
  H -1.99415398  1.20576891 -0.15071287
  H -2.95029058  0.12251193 -1.16297202
  H -3.53267185  0.58409887  0.43260415
