13
opt_min/./Product_456_0_opt.xyz
  O  1.81272000  0.19549000 -0.50699500
  C  0.68502044  0.09857937  0.32762070
  H  0.99030095  0.07336361  1.38346530
  C -0.25023280  1.31020104  0.07973603
  H  0.03653784  1.76975603 -0.86868686
  H -0.17487815  2.07293975  0.85318327
  C -1.65458036  0.79022519 -0.02864549
  N -1.54955998 -0.50469164 -0.04586784
  H -2.36387167 -1.09913783 -0.14778058
  C -0.21997668 -1.10549824 -0.00784142
  H  0.05070284 -1.48279944 -1.00108946
  H -0.17563146 -1.91552964  0.72220869
  H  2.42141655 -0.52529622 -0.31399028
