16
opt_min/./Product_8322_0_opt.xyz
  N  1.46688800 -0.87242800  0.86976900
  C  1.54385210  0.17404876  0.18562511
  C  0.51602692  0.53727747 -0.84292891
  C -0.71052377 -0.38188882 -0.86859813
  C -1.52369534 -0.29315118  0.38234157
  C -2.78512645  0.09886190  0.41592353
  H -3.33552486  0.14174116  1.34100473
  H -3.31808611  0.38395964 -0.47571961
  H -1.01916341 -0.57203242  1.29401808
  H -0.36870684 -1.40794566 -1.00226292
  H -1.33237462 -0.10411257 -1.72028288
  H  1.01510376  0.51194253 -1.81551168
  H  0.21025427  1.56962437 -0.67210680
  O  2.53721418  1.09924642  0.23011110
  H  3.22426329  0.84914035  0.86246752
  H  2.22735796 -1.02913720  1.52530311
