13
opt_min/./Product_9677_0_opt.xyz
  C  1.49061200  0.72499800  0.52510000
  C  0.92638878 -0.57782602 -0.03016942
  N -0.39786213 -0.63394333 -0.00715936
  C -1.68959498 -1.36784410 -0.30147403
  H -2.04079007 -2.25197857 -0.75174430
  C -1.69323234 -0.16327075  0.19393543
  O -2.27428949  0.91184492  0.65984392
  H -1.62146537  1.54793190  0.98383703
  N  1.60280505 -1.57568507 -0.45635340
  H  2.60521513 -1.42416425 -0.42705778
  H  0.81143000  1.55929942  0.35528010
  H  1.68161834  0.62910357  1.59335946
  H  2.43419246  0.94334032  0.02821023
