13
opt_min/./Product_3923_0_opt.xyz
  C -1.29092600 -0.71047700  0.00776000
  C -0.09966864 -0.06118606 -0.66347640
  H  0.00604226 -0.29358215 -1.71424318
  C  1.18326054  0.15003181  0.09975431
  O  1.30056260 -0.22881035  1.43154960
  H  1.14585087 -1.17511746  1.51098437
  H  2.11834183  0.04119779 -0.44939316
  C  0.31420262  1.32161765 -0.23804708
  H -0.22272699  1.78729292  0.57038737
  H  0.65947498  2.02497299 -0.97917427
  H -1.06439866 -0.93762904  1.04686936
  H -1.57388103 -1.62352131 -0.50758567
  H -2.14867526 -0.04177325 -0.00651494
