14
opt_min/./Product_6952_0_opt.xyz
  O  2.78962721 -1.04246887  2.09334675
  C  1.57594752 -0.56922661  1.81543137
  N  0.94321546 -0.93019028  0.79406710
  C -0.34621151 -0.37409389  0.50461470
  C -0.26115882  0.46839417 -0.77934001
  C -1.54672954  1.04239074 -1.11237570
  C -2.61221158  1.52313826 -1.36744969
  H -3.54568465  1.93823206 -1.60050175
  H  0.47180575  1.26895545 -0.63375238
  H  0.08321355 -0.17028783 -1.59684831
  H -0.73414267  0.24762869  1.32777095
  H -1.03318191 -1.20873059  0.33612861
  H  1.23911328  0.14376416  2.57827255
  H  3.03960118 -1.67088762  1.39749489
