12
opt_min/./Product_7124_1_opt.xyz
  N  2.49946400 -0.00534400 -0.22265100
  C  1.24465980  0.03950888 -0.11610003
  O  0.55982083  1.25011326 -0.20491696
  C -0.77031048  1.28371682 -0.09024252
  H -1.15906120  2.28927484 -0.18010654
  C -1.53614330  0.19692193  0.11284172
  H -2.60483461  0.28201745  0.19777802
  C -0.88773215 -1.07605809  0.21264232
  H -1.48534164 -1.95988639  0.37554793
  C  0.45253363 -1.14886414  0.10191951
  H  1.00037006 -2.07296253  0.16747658
  H  2.94517703  0.89370049 -0.37387086
