14
opt_min/./Product_6852_0_opt.xyz
  C  2.25915400  0.05375000 -0.28801300
  C  1.11855953 -0.36404117  0.60075420
  C -0.13475250 -0.21907424  0.30689215
  C -1.40434059 -0.04903903 -0.01590047
  N -2.17892218 -0.93352476 -0.75079483
  H -3.16832391 -0.75156508 -0.65564481
  H -1.91117039 -1.90347525 -0.73680157
  C -2.07992757  1.19091339  0.39055390
  O -3.25843712  1.40018020  0.22088090
  H -1.42278220  1.91764987  0.89739623
  H  1.39937274 -0.79409051  1.55529208
  H  2.13289145 -0.35731283 -1.28815787
  H  2.28958333  1.13958853 -0.37536813
  H  3.20463116 -0.29016382  0.12083113
