8
opt_min/./Product_1013_0_opt.xyz
  N  2.29703200 -0.30787700 -0.54921700
  C  1.17703255 -0.21123082 -0.07256142
  C  0.00985105 -0.08428369  0.43880273
  C -1.41446153  0.17097274  0.34528727
  H -2.01507677 -0.40790906 -0.34436210
  H -1.79685299  1.15057566  0.59865733
  O -0.83798477 -0.55330032  1.41365193
  H  2.98989498  0.40199901 -0.33334678
