15
opt_min/./Product_6371_0_opt.xyz
  C -0.99338300 -1.23783800  0.26696500
  C -0.21902586  0.07859375  0.36037409
  C -1.06490919  1.23093028 -0.18636808
  H -2.01041061  1.29973575  0.34566767
  H -1.28267341  1.06842132 -1.24044720
  H -0.53512762  2.17434246 -0.08789201
  C  1.05832536 -0.02559249 -0.41636293
  C  2.26948936  0.10758103  0.08788070
  H  2.42992998  0.31047357  1.13481286
  H  3.15616858  0.02194769 -0.51766780
  H  0.92683727 -0.22906382 -1.47216320
  H  0.01717212  0.27927306  1.41030602
  H -0.37508751 -2.07204451  0.58939654
  H -1.29775493 -1.42116092 -0.76149849
  H -1.88353959 -1.20091692  0.88900846
