10
opt_min/./Product_1980_1_opt.xyz
  N -1.05790600 -0.58409800  0.26520400
  C -0.53445209  0.78414126  0.40706988
  C  0.90294633  0.95238767 -0.01967887
  N  1.40757458 -0.15223936 -0.48025571
  H  2.36806075 -0.18794441 -0.78900197
  H  0.86583745 -1.02037441 -0.54033900
  H -1.11831736  1.48603535 -0.19550218
  H -0.59255790  1.14431820  1.44277325
  H -1.22097842 -1.01660216  1.16464316
  H -1.92519763 -0.60153356 -0.25430192
