14
opt_min/./Product_10522_0_opt.xyz
  C -2.38846700 -0.17836000  0.52054200
  C -1.01981409  0.20660967  0.02651086
  N -0.71461801  1.02764499 -0.88403337
  H -1.50549607  1.47420268 -1.33421337
  O -0.06289579 -0.44965144  0.69245780
  C  1.26492387 -0.14589096  0.31774318
  C  2.24372918 -1.05158391  0.99274627
  O  3.45563866 -0.66753870  0.92807437
  H  3.66163449  0.19161542  0.47646126
  H  1.46682355  0.92372555  0.50982386
  H  1.37152145 -0.29178414 -0.77124327
  H -2.49563717 -1.25965047  0.48252595
  H -3.16183490  0.29043426 -0.08291857
  H -2.49892246  0.13205389  1.55754754
