13
opt_min/./Product_6246_0_opt.xyz
  O -1.86201700  1.84020600  0.14605500
  C -0.75940474  1.43635772  0.42368007
  N -0.31742496  0.17654493  0.24797484
  C  1.06591102 -0.20085175  0.52643249
  C  2.08470494  0.04167345 -0.46945428
  H  1.65325066  0.44920619 -1.39800114
  H  1.39444977  0.27301461  1.46218435
  H  1.09994344 -1.28326521  0.72761416
  C -1.17001797 -0.81649753 -0.36406410
  H -2.15225436 -0.36655563 -0.50183424
  H -1.25214416 -1.69458265  0.28131061
  H -0.77509260 -1.12491881 -1.33696824
  H  0.02097030  2.08067565  0.87498983
