10
opt_min/./Product_2191_0_opt.xyz
  C  1.78781100  0.01432900  0.48675200
  N  0.47736432 -0.51835482  0.78992258
  C -0.51748676 -0.12535997  0.17741495
  O -0.96968475  0.69859945 -0.78372845
  C -1.92514598 -0.13851014 -0.09073578
  H -2.60909934  0.38829281  0.56312456
  H -2.36134849 -0.92549479 -0.69284400
  H  2.19559283  0.43004031  1.40693950
  H  1.77669185  0.76746148 -0.30366759
  H  2.41270274 -0.82949856  0.18922931
