11
opt_min/./Product_11503_0_opt.xyz
  N  2.84167587  1.78952482  0.93792122
  C  1.94891350  1.19093415  0.40617454
  C  1.07170577  0.24165692  0.13486960
  N -0.26596757  0.36851892  0.29112743
  C -1.06594504 -0.47974223 -0.23989334
  C -2.50066368 -0.31435971 -0.07392131
  O -3.33404426 -1.01180227 -0.60302222
  H -2.77676325  0.52605968  0.58786713
  H -0.72995855 -1.32063217 -0.85743337
  H  1.48944485 -0.62402393 -0.39103457
  H  3.37503667  2.56417875  0.57883789
