14
opt_min/./Product_5611_0_opt.xyz
  C -1.23684500 -1.26525000  0.48323900
  C -0.11077049 -0.31104439  0.28541647
  O -0.22657902  0.92627299 -0.02233622
  C -1.33351520  1.60640079 -0.25554974
  H -2.29923006  1.18244325 -0.06118349
  H -1.18438830  2.66629159 -0.28909578
  O  1.15623952 -0.84698089  0.34875907
  C  2.21685868  0.06292101  0.17425853
  H  2.15391304  0.89024585  0.88942569
  H  3.12971720 -0.50293464  0.34916054
  H  2.22064022  0.47567586 -0.83962688
  H -0.83511383 -2.19984066  0.85906884
  H -1.77342200 -1.45169439 -0.44990547
  H -1.95117527 -0.85261019  1.19952304
