14
opt_min/./Product_4542_0_opt.xyz
  C -2.24135900 -0.15264100  0.71915300
  O -1.04943981 -0.60959406  0.14124183
  C -0.30530547  0.42434179 -0.47845017
  C  0.95786792 -0.17101227 -1.04237119
  C  2.07491915 -0.18156027 -0.38308235
  C  3.17258607 -0.18553510  0.29909506
  H  3.91854449  0.58781567  0.23153159
  H  3.39531871 -0.98843434  0.98597727
  H  0.86363887 -0.64269369 -2.00730075
  H -0.90452852  0.87168995 -1.28867913
  H -0.06858962  1.20619962  0.25973273
  H -2.04577708  0.59835019  1.49671935
  H -2.72608166 -1.02294836  1.15643849
  H -2.90451819  0.29948709 -0.03298231
