19
opt_min/./Product_6514_0_opt.xyz
  C  2.29166500  0.34396400  0.30845100
  C  1.51971813 -0.29409851 -0.80707820
  C  2.04854455 -1.21320339 -1.60672850
  H  3.07003458 -1.52454381 -1.50922664
  H  1.47086000 -1.64603966 -2.40338354
  O  0.24018483  0.11964597 -1.06291912
  C -0.56398428  0.65139438 -0.02377155
  C -1.81418326  1.20598576 -0.70057326
  H -2.41320690  1.76051766  0.01804835
  H -1.52203407  1.86589006 -1.51505399
  H -2.40017359  0.38580927 -1.11262404
  C -0.92741333 -0.41749033  1.02724322
  H -1.99492848 -0.40000185  1.23258481
  H -0.39606000 -0.25781757  1.96491203
  H -0.67082623 -1.40672264  0.64628591
  H -0.02888128  1.48453863  0.46243914
  H  3.32864492  0.02114360  0.25445455
  H  2.25438784  1.43257471  0.23179860
  H  1.88735574  0.05011312  1.27831187
