10
opt_min/./Product_9362_0_opt.xyz
  C  3.35324600 -1.09074300 -0.08934801
  C  2.16705599 -0.66652647 -0.04827881
  C  0.90225201 -0.21078408  0.00268993
  C  0.41806233  1.09185567  0.36270430
  H  0.99964534  1.93841393  0.67067825
  N -0.86434489  1.16695249  0.28029959
  O -1.39172952  0.00772210 -0.11917864
  C -0.35469058 -0.94911990 -0.32419378
  H -0.39495719 -1.29924913 -1.36093896
  H -0.52392649 -1.80882332  0.33510588
