16
opt_min/./Product_7252_0_opt.xyz
  C -0.74876000 -1.62822400  0.25631900
  C -0.53736062 -0.17250003  0.05878572
  N  0.63919348  0.46886634 -0.07871777
  C  1.94305523 -0.13826707 -0.06150817
  H  2.44397746  0.02612830 -1.01537693
  H  1.85372568 -1.20807838  0.10608144
  H  2.55174560  0.30174958  0.72944014
  C  0.48125559  1.77012234 -0.25035634
  H  1.23536754  2.50678647 -0.37126969
  O -0.86950229  2.10573698 -0.24248525
  C -1.60138110  0.88951463 -0.07322805
  H -2.26952458  0.73525754 -0.94573308
  H -2.25081964  0.97345503  0.81961434
  H -1.72814491 -1.78629269  0.70041134
  H -0.00245119 -2.05283620  0.92656653
  H -0.72627830 -2.18796463 -0.68442028
