15
opt_min/./Product_9596_0_opt.xyz
  O -2.17549800  0.97164700 -1.03469800
  C -1.08828346  0.83998453 -0.18749564
  H -0.60093743  1.80628410 -0.11105529
  C -1.12050545 -0.04615003  1.01757676
  H -1.99333927 -0.66336200  1.17473706
  H -0.65608757  0.27372809  1.93804654
  C -0.23682589 -0.40372219 -0.16899211
  C  1.24079626 -0.34604019 -0.06723609
  O  1.79476985  0.63129491  0.70690153
  H  1.11674942  1.19243226  1.09611691
  C  2.02951561 -1.21168493 -0.69586783
  H  3.09708039 -1.14511674 -0.60277925
  H  1.62626968 -1.99339578 -1.30929508
  H -0.58169953 -1.22636207 -0.78373815
  H -2.58749053  0.10939868 -1.15797339
