11
opt_min/./Product_6988_0_opt.xyz
  N  2.06010400 -0.09558200 -0.11725100
  C  0.72886089 -0.21995185  0.16516245
  C -0.01443815 -1.34577314  0.44681546
  N -1.29975115 -1.38109140  0.37264066
  C -1.87540816 -0.26533426 -0.12490949
  H -2.87373669 -0.28943152 -0.52648353
  N -1.32489578  0.88579004  0.07123233
  N -0.02316227  0.90194491  0.43537716
  H  0.23355041  1.67994561  1.03444942
  H  2.55394375 -0.96713354 -0.21273110
  H  2.56989794  0.62871384  0.36859425
