9
opt_min/./Product_7304_1_opt.xyz
  C  2.24849400 -0.35279100 -0.17059700
  O  3.38146292 -0.41674157 -0.37156588
  C  0.95869946 -0.30049627  0.08862510
  C  0.03830552  0.58296945 -0.51423827
  C -1.35529052  0.41658901 -0.05442954
  H -1.51365852 -0.17451326  0.86068347
  H -1.88001313 -0.09165567 -0.86585811
  H -1.82957176  1.38857816  0.05372077
  H  0.65201768 -1.02766102  0.85286017
