10
opt_min/./Product_5545_0_opt.xyz
  O  2.69771200 -0.65909509  0.00933615
  N  25.74593623  24.70962861 -2.98703124
  C  30.73840151  13.47643653 -6.35967086
  C -0.88879275 -2.31268672  9.75380077
  C  2.17411329  3.71402834 -5.59587421
  N -9.98911234  6.02027480  1.06877966
  H -10.81902545 -1.24966056  4.65122604
  H  2.02843930 -0.68539474  2.95031305
  H -21.17866054 -11.01658875  10.98139272
  H  4.67387332 -7.19074333 -3.72678491
