17
opt_min/./Product_7106_0_opt.xyz
  C -2.27216200  0.91268200 -0.29043000
  C -1.44188800 -0.18301553 -0.96823949
  C  0.03043399  0.02720286 -0.72464984
  O  0.66212295 -0.86171880 -0.02581087
  C  1.89351919 -0.84316223  0.37599582
  C  2.82326513  0.28165342  0.08430589
  H  3.78018895  0.10617827  0.56293697
  H  2.98355344  0.39720384 -0.99335377
  H  2.40555444  1.22735984  0.44611839
  H  2.20246703 -1.74012151  0.88145463
  H  0.48881399  0.95250439 -1.03571123
  O -1.88541718 -1.42427059 -0.46450801
  H -1.19692793 -2.08000573 -0.62290327
  H -1.63599770 -0.14280972 -2.05943325
  H -2.09583200  0.87756955  0.78212905
  H -1.98496979  1.88758635 -0.67526187
  H -3.32750245  0.74102996 -0.47861869
