13
opt_min/./Product_7723_1_opt.xyz
  C  1.36769600 -0.96559000 -0.29619200
  H  1.22178397 -1.49346241 -1.22124213
  H  1.94930317 -1.51794966  0.42659475
  C  1.52868293  0.53189273 -0.33382884
  H  2.22663444  0.99477208  0.34241462
  H  1.43296149  1.01063339 -1.29358492
  C  0.28194049 -0.08372104  0.22490528
  O -0.91769402  0.01075085 -0.49960546
  C -2.04345536  0.31283392  0.27863036
  H -2.89072578  0.32243568 -0.40278977
  H -1.96262845  1.29926588  0.75494524
  H -2.21408627 -0.43774861  1.05815081
  H  0.14532563 -0.04023016  1.30042198
