11
opt_min/./Product_9093_0_opt.xyz
  O -0.20351800  2.08765100 -0.43465900
  C -0.20020828  0.88511968 -0.27399882
  C -1.39284486 -0.06819730 -0.09334215
  H -2.09378713 -0.04026948 -0.93325201
  H -1.93076630  0.22611007  0.80807330
  C -0.66984960 -1.38160017  0.01304863
  H -1.13005823 -2.31785080 -0.23893217
  C  0.60256567 -1.17401846  0.40289417
  C  0.96738812  0.13692537  0.25882269
  O  2.07558138  0.78459211  0.60463728
  H  2.04281992  1.67233956  0.20783924
