17
opt_min/./Product_11527_0_opt.xyz
  C  3.21349100  0.01607200  0.35218800
  C  1.88452319  0.58784598  0.69627511
  N  0.76697424  0.02632539  0.27974403
  C -0.50639410  0.33945763  0.49840327
  C -1.58353833 -0.40999146 -0.14544689
  H -1.26062397 -1.29703661 -0.68684874
  C -2.95331023 -0.43996767  0.43212269
  H -3.14363482  0.12107525  1.34028610
  H -3.55587909 -1.33223581  0.32202158
  N -2.69719798  0.26778722 -0.80437616
  H -2.66982010  1.27764591 -0.69293966
  H -0.72659998  1.21857898  1.07994847
  H  0.89475111 -0.80147158 -0.30196898
  H  1.81273448  1.46743428  1.31119796
  H  3.87801732  0.78646188 -0.04290689
  H  3.11247021 -0.76660603 -0.39950899
  H  3.70730204 -0.41821375  1.22819255
