10
opt_min/./Product_7659_0_opt.xyz
  N -0.28573913 -1.50860711  0.55355963
  C -0.38681663 -2.66615400  0.56283489
  C -0.17350055 -0.10934658  0.53014885
  C  1.02696926  0.29271174 -0.19064742
  C  2.00805673  0.60976441 -0.79677250
  H  2.87106748  0.89323233 -1.32016957
  C -1.40081342  0.53328278 -0.12544475
  O -1.56383721  1.70723948 -0.24820170
  H -2.13277378 -0.21704300 -0.49237325
  H -0.11301392  0.25932169  1.56547605
