14
opt_min/./Product_4232_0_opt.xyz
  C -1.14010100 -1.19538500  0.05553700
  H -1.21232882 -2.08781547 -0.56486679
  H -1.04982523 -1.51834154  1.09422676
  C -2.23564959 -0.17470358 -0.07070700
  C -1.20125133  0.91456812 -0.00246408
  H -1.14060466  1.29998501  1.01682784
  H -1.32712577  1.76114813 -0.67714603
  C -0.08800886 -0.12131076 -0.24710594
  O  1.02218418 -0.11279568  0.62296616
  C  2.20052375  0.42250296  0.07866985
  H  2.51672669 -0.14356735 -0.80705043
  H  2.07530957  1.47650449 -0.19812895
  H  2.96635755  0.34413363  0.84734947
  H  0.23895106 -0.13512896 -1.29447946
