12
opt_min/./Product_40_0_opt.xyz
  C -1.78929700  0.53954300 -0.25311800
  N -0.47135661 -0.01256339 -0.23234747
  C  0.01528083 -0.43985061  0.85379692
  N  1.30785127 -0.91044132  0.94928708
  C  2.38158960 -0.62919764  0.15702894
  O  2.14949149  0.13208997 -0.85977496
  H  1.21717500  0.44728085 -0.91928681
  H  1.52993959 -1.45872089  1.76909624
  H -0.53458161 -0.46427635  1.80781974
  H -2.29975579  0.48896476  0.71819571
  H -1.72002391  1.57816838 -0.58219846
  H -2.37249996 -0.00434543 -0.99970071
