12
opt_min/./Product_9913_0_opt.xyz
  N  2.60166401 -1.14547600  1.55241299
  C  1.93060450 -0.59875834  0.80859512
  C  1.05196961  0.07926612 -0.11468367
  C -0.40725389 -0.05063771  0.33515682
  H -0.48838075  0.17851116  1.40205548
  C -1.46031990  0.61347286 -0.57215261
  H -2.16353750  1.28321828 -0.09198499
  H -1.07472400  1.07320603 -1.47618306
  C -1.93884808 -0.83037645 -0.76297789
  O -0.99542679 -1.30902418  0.01367407
  H  1.31667666  1.13628740 -0.15710804
  H  1.16990882 -0.38080283 -1.09995003
