14
opt_min/./Product_6869_0_opt.xyz
  C  2.68797200  0.18667300  0.50005300
  N  1.63779749 -0.45806262  0.13231915
  C  0.97479689 -1.52842091 -0.17632262
  H  1.03701854 -2.57559845 -0.26075346
  C  0.25201737 -0.24452649 -0.27246016
  C -0.71638941  0.13489935  0.80449478
  O -0.48527225 -0.04964267  1.97289511
  C -2.00673797  0.74509521  0.31140063
  H -2.82197644  0.46488106  0.97515661
  H -2.23167301  0.44589994 -0.70845373
  H -1.90427810  1.82997021  0.34751346
  H  0.09208365  0.23251237 -1.24099910
  H  3.58554423 -0.35448877  0.73155621
  H  2.64201577  1.24922489  0.63333543
