11
opt_min/./Product_4002_0_opt.xyz
  N  2.31364531  0.61361875  0.29193625
  H  3.15258070  0.06423973  0.08933502
  C  1.21312650 -0.15773467  0.65083062
  C  0.12065679 -0.88190407 -0.00742195
  N -1.13336472 -0.36032120  0.47668392
  C -1.80185099  0.40678125 -0.25107297
  H -1.52000639  0.71054475 -1.26906466
  H -2.72948332  0.79319639  0.13992870
  H  0.24565839 -0.79565053 -1.10018654
  H  0.17493770 -1.93342617  0.29794186
  N  1.74822555  0.25125853  1.69757305
