11
opt_min/./Product_10846_0_opt.xyz
  C  2.47972511 -0.48583394  0.80368570
  C  1.61179020 -0.24975144 -0.27575371
  C  0.29317394 -0.33815310 -0.00050298
  N -0.61421270 -0.54654093  0.91496397
  H -0.82841920 -0.71009152  1.87557918
  C -1.14843282 -0.27499699 -0.40275015
  C -1.75395477  0.99531780 -0.65902875
  N -2.24422705  2.01062233 -0.85277752
  H -1.59982351 -1.09896564 -0.95331134
  H  1.88798925 -0.00693570 -1.30824400
  H  3.52558470 -0.35614489  0.47161255
