14
opt_min/./Reactant_9504_0_opt.xyz
  C  2.28995700  0.04350000 -0.15031400
  N  1.22850537  0.38931420  0.75526355
  C -0.08354399  0.33347692  0.38984410
  N -1.03683540  0.89452916  1.12356925
  N -2.18829690  0.60727289  0.49182723
  H -3.05338128  0.92869652  0.89116589
  C -1.99024150 -0.11343632 -0.62920866
  H -2.81120403 -0.42185084 -1.24549074
  C -0.63908863 -0.31441537 -0.74096316
  H -0.11044629 -0.85097018 -1.50110596
  H  1.43641775  0.95030631  1.56133206
  H  3.23402551  0.42048362  0.23607132
  H  2.37041566 -1.04397567 -0.26065269
  H  2.12405545  0.47519674 -1.14352517
