14
opt_min/./Product_2151_0_opt.xyz
  C -1.89484500  0.18884000  0.71111600
  C -0.92265527  0.24473104 -0.47287518
  C  0.53301006  0.26142332 -0.02323493
  O  0.78592055 -0.97197559  0.69245979
  C  1.94871185 -1.41516188  1.02444991
  O  3.01224810 -0.72649881  0.74214369
  H  2.89115215  0.12235936  0.26174999
  H  0.71949162  1.10684160  0.64985652
  H  1.19211650  0.33368157 -0.89862632
  H -1.06679109 -0.62054187 -1.12014530
  H -1.09510277  1.14183537 -1.07045675
  H -2.39785592 -0.77206796  0.75626251
  H -2.65165495  0.96485648  0.63366509
  H -1.36399281  0.32380301  1.64949693
