13
opt_min/./Product_10721_0_opt.xyz
  C -2.07924100  0.40713800 -0.30924400
  O -1.08432744 -0.24039744  0.45657330
  C -0.12131056 -0.86531220 -0.31150828
  H -0.47773831 -1.29774089 -1.24759889
  C  1.27500519 -0.49798333 -0.17647412
  C  2.22412168  0.53287473  0.17623475
  H  1.97069013  1.57136604 -0.00125301
  H  2.95260659  0.33327061  0.95212040
  O  2.34369884 -0.27733394 -0.99773549
  O  0.80586113 -1.65553659  0.40018330
  H -2.73023491  0.89547745  0.41247204
  H -2.65643829 -0.31550934 -0.89740583
  H -1.64329763  1.15332077 -0.98164042
