15
opt_min/./Product_11874_0_opt.xyz
  C -2.20268196  0.80796896  0.32594323
  C  13.05474364 -4.25698240  1.61289674
  N  5.02824398 -1.73624626  2.42124535
  C  4.50353509 -6.27477444 -7.18586248
  N  15.72484027 -9.00481352 -4.91461506
  C  15.35204089  2.20964510 -3.69520236
  C  2.24744360  1.94278102 -1.51996793
  H -4.48466739  4.00912160 -0.76764727
  H  2.32942698  5.65896449 -4.01396834
  H -2.59944312 -12.38426023 -2.66079866
  H -7.82596399  0.18626802 -13.56662822
  H  2.47196416 -2.07034441  4.93603543
  H  5.18129760  4.24999034  8.16555192
  H  5.21815807  15.08241917 -15.28408321
  H -10.36375729  9.58982466 -2.87786509
