12
opt_min/./Reactant_8968_0_opt.xyz
  N -2.00481000  0.21066300 -0.08625700
  C -0.65315867  0.07532713 -0.03625939
  C  0.15502551  0.86217124  0.79581205
  H -0.27722066  1.62477234  1.43337768
  N  1.46503333  0.72158311  0.85004116
  C  2.00329731 -0.20443000  0.07590147
  H  3.07837462 -0.31926852  0.12116528
  N  1.35031788 -1.00483439 -0.74887654
  C  0.04010857 -0.86997426 -0.80603500
  H -0.48656947 -1.53102580 -1.48423139
  H -2.46205511  0.92606877  0.44801399
  H -2.54967793 -0.34157333 -0.72181608
