14
opt_min/./Product_6265_0_opt.xyz
  C  1.74269700  0.44319300 -0.04009900
  C  0.90151733 -0.52952960  0.73246159
  C -0.35224864 -0.85396076  0.46542377
  C -1.18655571 -0.29300217 -0.64721891
  C -2.38200977  0.47607902 -0.15078860
  O -2.70565329  0.62320752  0.99222818
  H -2.95335778  0.97455040 -0.96156067
  H -0.60776786  0.34945415 -1.31042050
  H -1.58280480 -1.10556242 -1.26369636
  H -0.86814885 -1.56130350  1.09683794
  H  1.38423027 -1.00825330  1.56845982
  H  1.99206157  0.04151407 -1.01889028
  H  1.22435541  1.38688938 -0.18203330
  H  2.67294299  0.64495745  0.48029266
