17
opt_min/./Product_6435_0_opt.xyz
  C -1.89241500  0.64760000  0.30765700
  C -0.57319891  0.13767596 -0.19031678
  C -0.45952282 -1.00335609 -1.15602894
  H -1.36756435 -1.55525207 -1.34870690
  H  0.19007057 -0.91898954 -2.01675885
  C  0.14297564 -1.14445853  0.20656042
  H -0.16705074 -1.86755079  0.93937231
  C  1.47794167 -0.40220036  0.23324150
  C  2.24847864 -0.35842838  1.45982924
  H  3.01931977  0.42902919  1.36322990
  H  2.14002251 -0.70734330 -0.58644624
  C  0.72324931  0.93047239 -0.13816145
  H  0.72874606  1.62658456  0.70099775
  H  1.05518596  1.44032075 -1.04069888
  H -1.74940394  1.30284948  1.16538677
  H -2.52338485 -0.18492173  0.61113711
  H -2.41259426  1.20901360 -0.46916162
