14
opt_min/./Product_6629_0_opt.xyz
  O  3.49681300 -0.78925200  0.70372800
  C  2.50345364 -0.10131874  0.52598294
  C  1.20564995 -0.61627963  0.31024602
  N  0.08149254  0.10763363  0.13303453
  C -1.08211937 -0.66986624 -0.13246099
  C -2.26038089 -0.43138729  0.41262652
  H -3.10783351 -1.05493201  0.19311000
  H -2.41683944  0.37884934  1.10447704
  H -0.91314550 -1.50666949 -0.79476995
  C -0.05903220  1.40915098  0.20661908
  H -1.00482804  1.85184121 -0.03368384
  H  0.77471366  2.03759143  0.44844843
  H  1.09407693 -1.68802158  0.26872109
  H  2.59689906  1.00283947  0.50368177
