14
opt_min/./Product_9501_0_opt.xyz
  C -2.46966600 -0.03455500  0.68953700
  N -1.50174527 -0.78189369  0.10673813
  C -0.23012206 -0.46269869 -0.06743544
  N  0.27765470  0.82359252  0.26977399
  H  0.08172880  1.09168911  1.23656832
  N  1.67627580  0.77151696 -0.03929077
  H  2.27609489  1.21634176  0.64521809
  C  1.97604814 -0.53159557 -0.44460759
  H  2.98327810 -0.78763828 -0.70256873
  C  0.84553932 -1.27023188 -0.52853830
  H  0.75438087 -2.27932174 -0.87538156
  H -1.75355065 -1.71930261 -0.17660315
  H -2.30002794  1.01930313  0.78015355
  H -3.47670187 -0.38468513  0.56447827
