12
opt_min/./Product_10677_1_opt.xyz
  O  2.78742000 -1.00610300  0.92665900
  N  2.43761372 -0.02491718  0.27533684
  C  1.13596320  0.33502719  0.22117016
  C  0.49062984  1.48002310 -0.10126644
  H  0.81971439  2.49819600 -0.19445579
  C -0.86838691  0.86394983 -0.11897644
  H -1.58347113  1.27537810  0.59153155
  H -1.32277066  0.80268904 -1.10551515
  C -0.17870783 -0.46677074  0.32017483
  O -0.28824991 -1.52785311 -0.57864791
  H -0.77022169 -2.26271953 -0.19015501
  H -0.40357457 -0.76270940  1.34762344
