16
opt_min/./Product_5865_0_opt.xyz
  C  3.10547000 -0.07077000 -0.30272800
  C  1.70346122 -0.50572769 -0.61077748
  O  0.93639200  0.56168012 -0.71087105
  C -0.44300454  0.31873869 -0.97648476
  C -1.18321929 -0.04491914  0.30776072
  C -2.66552358 -0.27543638  0.04894475
  H -2.80655791 -1.09244383 -0.65458497
  H -3.17545545 -0.52554474  0.97520266
  H -3.12474284  0.61839412 -0.36721292
  H -1.05267436  0.75912822  1.03513338
  H -0.72548240 -0.94838207  0.71701922
  H -0.54196065 -0.48966091 -1.70701913
  H -0.83289019  1.24886293 -1.39889830
  H  3.73546949 -0.42395995 -1.11965859
  H  3.43295372 -0.58719649  0.59804115
  H  3.22589879  1.00835637 -0.18783511
