10
opt_min/./Product_1665_0_opt.xyz
  C -1.02236600 -0.20131000 -0.38928700
  H -1.10485340 -0.44482520 -1.45182889
  H -1.99384880  0.09036637  0.01600651
  O -0.43903757 -1.26044129  0.36838445
  C  0.68407867 -0.45797676  0.74200255
  H  0.96401263 -0.52518401  1.78848395
  C  1.76802855 -0.43421708 -0.37262016
  O  1.21225942  0.60993638 -0.93873253
  C  0.12584294  0.74629011 -0.02442215
  H -0.06571822  1.76078226  0.31031258
