10
opt_min/./Product_11395_0_opt.xyz
  N -1.62180700  0.05087200  0.48252900
  C -0.19039325 -0.11421768  0.13890969
  N  0.22422873 -1.16897644 -0.49894018
  O  1.57887165 -0.91906723 -0.60615782
  C  1.84842770  0.31553595 -0.00281397
  O  2.95171397  0.77258820  0.05216453
  N  0.66630674  0.81858589  0.48438267
  H -1.88841821 -0.63109556  1.20173398
  H -1.71144409  1.00931429  0.84503080
  H -2.20155527 -0.08588603 -0.35297937
