14
opt_min/./Product_7259_0_opt.xyz
  C -0.52373700  1.44704000  0.37511500
  C -0.06046032 -0.01205795  0.29210792
  C -1.26223709 -0.95288774  0.19411864
  H -1.87331597 -0.84519640  1.08476601
  H -1.84578675 -0.71296791 -0.68986078
  H -0.92350265 -1.98495141  0.11835822
  C  0.81748648 -0.34400264  1.48717987
  O  1.97410020 -0.63015659  0.99006266
  C  1.92470058 -0.52648882 -0.41530168
  H  2.82728597 -0.74161804 -0.95203174
  N  0.81060402 -0.18419265 -0.86066290
  H -1.08486384  1.70333773 -0.51866125
  H  0.33751607  2.10950081  0.44991328
  H -1.14338703  1.57708877  1.25656260
