12
opt_min/./Product_1142_0_opt.xyz
  O -1.76704100  0.92833300  0.00293500
  C -1.43671661 -0.44468638 -0.03536684
  C -0.05131998 -0.60800152  0.59699263
  N  0.93852093 -0.18075463 -0.34558879
  C  1.70018411  0.77232706 -0.07888057
  H  1.69543847  1.33748540  0.86278183
  H  2.43100007  1.06458707 -0.81819340
  H -0.02446797 -0.05349339  1.54417520
  H  0.11864041 -1.67215372  0.78410597
  H -2.17248832 -1.02999600  0.53277376
  H -1.40320625 -0.81505114 -1.06576703
  H -2.59021503  1.07184973 -0.47452439
