14
opt_min/./Product_10314_0_opt.xyz
  C  1.52447002  0.33449493 -0.53075999
  C  0.52731884 -0.14223488  0.50921497
  H  0.97416889 -0.12864100  1.50743933
  C -0.88974600  0.52314319  0.46799542
  O -1.03891923  1.52919697 -0.49998301
  H -1.94141532  1.50400023 -0.83135901
  H -1.22240347  0.89647312  1.44828408
  C -1.40756075 -0.85594082  0.14110917
  H -2.40192191 -1.21854736 -0.04915872
  C -0.20962861 -1.42747113  0.20081618
  H  0.14354074 -2.43473071  0.08604586
  H  2.39353365 -0.31921248 -0.53616579
  H  1.06648733  0.32131912 -1.51360186
  H  1.84496317  1.34663194 -0.30553633
