15
opt_min/./Product_979_0_opt.xyz
  C -1.51552900 -0.27555900  0.35542600
  N -0.52321021  0.05698874 -0.65500924
  C  0.08407308  1.34694591 -0.47141848
  H -0.58964346  2.05510683  0.01733205
  H  0.40157061  1.74805537 -1.44533353
  O  1.25332807  1.18526486  0.34482662
  C  1.57857207 -0.19150619  0.36631948
  H  1.38813992 -0.58920938  1.37432447
  H  2.63814399 -0.31915920  0.13306491
  C  0.62949304 -0.82697124 -0.66625316
  H  1.08498877 -0.77570745 -1.66129804
  H  0.36393708 -1.85759922 -0.44194829
  H -1.12774148 -0.25756178  1.38442682
  H -2.33986057  0.43367681  0.27991731
  H -1.90089273 -1.27336916  0.14036553
