12
opt_min/./Product_163_0_opt.xyz
  C  1.74625740  0.28434085  0.35758320
  N  0.61800722 -0.58867481  0.60311739
  C -0.60405668 -0.14773551  0.13541250
  N -1.75698720 -0.87784250 -0.07727237
  H -2.17365267 -1.78036949  0.00174850
  O -2.46076882  0.27950035 -0.43304296
  C -1.24880120  0.98740666 -0.23342698
  H -1.16014781  2.03990804 -0.34510850
  H  0.79478014 -1.55543630  0.35544553
  H  2.57702535 -0.02417104  0.99199216
  H  1.46004882  1.29986313  0.62288350
  H  2.08057533  0.27853540 -0.68828712
