12
opt_min/./Product_1584_0_opt.xyz
  O  1.11153700  0.55240100 -1.02586700
  C  0.30165200  0.35853613  0.05212783
  C -1.54465553 -0.82352000  1.18915813
  H -1.12361614 -0.66134158  2.18082361
  C -2.99324036 -0.60170989  1.02851163
  H -3.36971110 -0.30657358  0.05590881
  H -3.59023718 -0.29257369  1.87880090
  O -2.44839132 -1.88354323  1.10021426
  C -0.62996169 -0.58766089  0.05286948
  H -0.76939665 -1.20987106 -0.81695334
  H  0.45765283  1.00396324  0.90913379
  H  1.74975148  1.25007936 -0.84983807
