12
opt_min/./Reactant_5244_0_opt.xyz
  C -1.68140900 -0.18995900 -0.00123400
  C -0.21015012  0.03634990 -0.00184119
  C  0.80266184 -0.89840831 -0.06018400
  H  0.75889234 -1.96585071 -0.12778891
  N  1.96847424 -0.22107319 -0.01994393
  H  2.90260599 -0.59611786 -0.04694065
  N  1.78200611  1.09397810  0.06144207
  C  0.47727101  1.26365455  0.07151888
  H  0.06057131  2.24976841  0.13022075
  H -1.95893249 -0.91427629 -0.76369616
  H -2.20548512  0.74170917 -0.19299493
  H -2.00649265 -0.57621080  0.96365981
