8
opt_min/./Product_2602_0_opt.xyz
  C -0.97907900 -1.11839005 -0.42215785
  C -0.49099071  0.04296585  0.01265103
  C  0.69147927  0.74347896 -0.03655498
  C  1.91377467  0.08457200 -0.09591251
  N  2.93565948 -0.43594919 -0.19427181
  H  0.71258029  1.81372588  0.10355551
  H -1.33505864  0.63195202  0.39173276
  H -1.63358885 -1.78153210  0.11485916
