10
opt_min/./Product_602_0_opt.xyz
  N -1.08488900 -0.92122200 -0.17159600
  C -0.41931799  0.22836910  0.27362459
  C  1.01796044  0.28956405  0.22110803
  N  1.63995702 -0.63388968 -0.39431318
  H  2.64913953 -0.52410655 -0.40621886
  H  1.46178760  1.16157213  0.71552027
  N -1.04881766  1.16513904  0.87104720
  N -1.56693688  2.08919898  1.28897503
  H -0.41888038 -1.51966656 -0.64180266
  H -1.92231768 -0.74640696 -0.70843395
