11
opt_min/./Product_5349_0_opt.xyz
  C -0.46598500 -1.04588300  0.59327099
  C -0.45914469  0.29244578 -0.07112083
  O -1.68832838  0.83291164 -0.19093225
  H -1.65208284  1.69656377 -0.62643087
  C  0.65459069  0.89724539 -0.51981097
  C  1.92021507  0.31428844 -0.38706113
  N  2.96168448 -0.15906581 -0.28506704
  H  0.60906853  1.86599767 -1.00074268
  H  0.28395856 -1.08618924  1.38025281
  H -1.45062682 -1.23533397  1.01051777
  H -0.23066052 -1.82465759 -0.13145047
