12
opt_min/./Product_5742_0_opt.xyz
  C  1.80182600 -0.31713300  0.07385800
  O  0.80796260  0.63477488  0.42263925
  C -0.47684896  0.41921980  0.03967948
  C -1.29433384  1.47263780 -0.10259769
  H -0.92967107  2.47244082  0.04334060
  H -2.33624720  1.34005059 -0.32299007
  C -1.03918240 -0.93919424 -0.11153720
  O -0.50711660 -1.99046240  0.13551560
  H -2.08820574 -0.91051603 -0.47450161
  H  2.74005028  0.11240351  0.41879245
  H  1.63889522 -1.27884101  0.55928964
  H  1.83734688 -0.45620395 -1.01043291
