16
opt_min/./Product_11351_0_opt.xyz
  C -1.42807800 -1.51451500 -0.15627200
  C -0.12104688 -0.81212229 -0.04001803
  N  0.99686624 -1.43930086  0.00257198
  C  2.04832860 -0.46608338  0.10898608
  H  2.73824646 -0.58181786 -0.73010214
  H  2.62293511 -0.65244930  1.01971669
  C  1.36342910  0.86087752  0.12139372
  H  1.87363170  1.80215609  0.19098646
  C  0.04062120  0.64408869  0.03065355
  C -1.07145658  1.63062422  0.00388763
  H -0.67728429  2.64419254  0.03096699
  H -1.66497297  1.51649650 -0.90251050
  H -1.72821668  1.48901243  0.86145461
  H -2.25814788 -0.83366362  0.00876462
  H -1.52607828 -1.95356236 -1.14730504
  H -1.47604403 -2.32270270  0.56974734
