11
opt_min/./Product_1770_0_opt.xyz
  N  2.03155700 -0.71591100 -0.14464400
  C  0.81500425 -0.28708425 -0.05370721
  C -0.42971532 -0.81004395  0.33777190
  H -0.71308926 -1.78654483  0.65912106
  N -1.43425440  0.23870378  0.19724060
  H -1.89308326  0.49678707  1.08355908
  H -2.18915994  0.01217389 -0.46682313
  N -0.74613573  1.41969752 -0.29557752
  C  0.48380115  1.08925581 -0.41626148
  H  1.20615544  1.80211077 -0.76829731
  H  2.11291970 -1.69080633  0.13830468
