11
opt_min/./Product_3135_0_opt.xyz
  C  0.70237800 -0.95685900 -0.02502000
  H  0.98158972 -1.99989405 -0.02316562
  C  1.63466520  0.01419266  0.08878368
  H  2.69648750 -0.15656931  0.09647594
  C  1.01784758  1.21551213  0.54081307
  N -0.06033046  1.54653648 -0.06796157
  C -0.99390765  0.73788089 -0.38728366
  H -1.85036056  1.07663641 -0.94836737
  C -0.78896931 -0.69567904 -0.00384926
  H -1.30158568 -1.33578346 -0.72606990
  H -1.19571727 -0.94056565  0.99052244
