14
opt_min/./Product_11768_0_opt.xyz
  C -1.64147600 -0.10202900 -0.34415300
  C -0.21841930 -0.00545935  0.10197946
  C  0.67062463 -1.18449819  0.43437515
  H  1.21983093 -1.18691304  1.36584514
  H  0.30047549 -2.15357493  0.13095260
  C  1.08177071 -0.23283875 -0.64772237
  H  1.24173646 -0.45566727 -1.68652345
  N  1.61076986  0.96991550 -0.02402236
  H  2.56404289  1.28018760  0.08025533
  C  0.48102871  1.21703475  0.69952287
  O  0.19174932  2.08747527  1.46912777
  H -1.88019402  0.72349532 -1.01336756
  H -2.31013031 -0.05473877  0.51425452
  H -1.80612516 -1.03882285 -0.87369307
