13
opt_min/./Product_8819_0_opt.xyz
  N -1.66785500  0.75816200  0.00557800
  C -0.35817617  0.40620485  0.09288597
  C  0.77166473  1.08252498 -0.20675388
  H  0.86585520  2.10799116 -0.51320886
  C  1.85894083  0.14591293 -0.06241664
  H  2.89281045  0.38367055 -0.23289514
  N  1.50125567 -1.03295795  0.28877918
  C  0.07148248 -1.00568082  0.49734941
  O -0.63051613 -2.04674132 -0.09980365
  H -0.74190487 -1.85799307 -1.03786299
  H -0.09600591 -1.11665558  1.57966881
  H -2.32296886  0.15580073  0.47861227
  H -1.89146700  1.73986157  0.03341128
