8
opt_min/./Product_760_0_opt.xyz
  C -1.43051901 -0.20759197  0.23785100
  C -0.00958205  0.01277461  0.17762939
  N  1.13810068  0.21860407  0.18581076
  N  2.31178244  0.53344347  0.34787377
  H  2.95389755  0.18464575 -0.35077991
  H -1.72612499 -0.50936249  1.24396230
  H -1.98888238  0.69033299 -0.03442926
  H -1.70228386 -1.00402769 -0.45593072
