13
opt_min/./Product_10028_0_opt.xyz
  N  2.44289500 -0.73622700 -0.20024100
  C  1.28631386 -0.22639597 -0.08965337
  C  0.73853397  1.10638082 -0.44425265
  H  1.32638443  1.88714164 -0.88936803
  C -0.55223595  1.14113158 -0.13961336
  H -1.24381119  1.94818920 -0.29724075
  C -0.98656952 -0.18200430  0.45508611
  O -1.93552993 -0.87523757 -0.32876248
  H -2.81850612 -0.52492093 -0.17244839
  H -1.38495531 -0.04186196  1.47709984
  N  0.24325936 -0.90290630  0.47132974
  H  0.30096679 -1.88098311  0.69254526
  H  3.12474511 -0.10331576 -0.60975596
