11
opt_min/./Product_3393_0_opt.xyz
  N  1.39200100  0.57954200 -0.04090800
  H  2.30955135  0.96947979 -0.20102952
  C  1.23011893 -0.73507743  0.02814385
  H  2.03726206 -1.43354956  0.19405452
  O  0.01602049 -1.26951303  0.08672345
  C -1.03927852 -0.36159835 -0.24325445
  H -1.00164922 -0.14241394 -1.31955458
  H -1.96394279 -0.88683700  0.00254969
  C -0.80924955  0.89186248  0.58466706
  H -1.61805857  1.32314759  1.14462760
  C  0.42833494  1.35596889  0.60724001
