13
opt_min/./Product_10408_0_opt.xyz
  C -2.06166900 -0.32754000 -0.06707800
  C -0.61861639 -0.01696367  0.02106790
  N  0.32280376 -0.86778225  0.15480683
  C  1.55801400 -0.11638376  0.22182828
  O  2.51709355 -0.52633790 -0.67540144
  H  2.58528267 -1.48813069 -0.63722397
  H  1.91800973 -0.20505466  1.26933240
  N  1.23076801  1.28097795  0.04642672
  C -0.03577190  1.33943013 -0.03793107
  H -0.56088979  2.27222451 -0.13667077
  H -2.24455318 -1.34992864  0.25043906
  H -2.38443037 -0.21453381 -1.10385914
  H -2.64382950  0.37136646  0.53010032
