9
opt_min/./Product_207_0_opt.xyz
  O  0.84219200 -0.40814500  0.48145700
  C  2.09534630 -0.24720184  0.37192560
  H  2.41311649  0.00610494 -0.66779197
  C -0.04836013 -0.26355415 -0.61685419
  H  0.15773382 -0.95645565 -1.43070253
  C -1.40258399  0.23653054 -0.38355065
  H -2.20566843 -0.07822485 -1.03538717
  H -1.66255250  0.51986969  0.62818429
  O -0.39907007  1.01670347 -0.98179525
