16
opt_min/./Product_6615_0_opt.xyz
  C -2.14934400 -0.15522200 -0.45671900
  C -0.71031016 -0.50960683 -0.08308572
  O -0.17194229 -1.50851782 -0.91776498
  H -0.14399629 -1.17727219 -1.82323217
  C  0.17404057  0.75379627 -0.09412655
  N  1.56760626  0.41316502  0.05071991
  C  2.48250881  0.78889745 -0.82330831
  O  3.69165194  0.35840528 -0.56835083
  H  3.77378217 -0.22449516  0.21923030
  H  1.77285457 -0.21122658  0.84181900
  H  0.07291230  1.27733970 -1.04669148
  H -0.14526345  1.42129815  0.71224231
  H -0.69489952 -0.95300348  0.92069971
  H -2.18540294  0.30638604 -1.44062061
  H -2.56444996  0.53853199  0.26801266
  H -2.75892479 -1.05356472 -0.46910598
