12
opt_min/./Product_1273_0_opt.xyz
  C -1.37096202 -0.80431839 -0.11409364
  C  10.27896571 -11.35662834 -6.89744963
  C -3.47555528  3.69639929 -3.47826832
  N  4.88057222 -0.82541862 -0.21565558
  H  4.79288573 -1.08616684  0.76707606
  H  16.88305780  29.93653794 -3.11564747
  N -3.25066585 -4.02993693  6.98106118
  C -7.99589234 -10.21985128  2.69605145
  H  17.25204826  18.87678268 -15.90492729
  H -14.50516292  11.35577880  3.18040494
  H  0.71668604 -2.55091022 -4.35926947
  H  0.02063804 -5.41946930 -2.22227711
