12
opt_min/./Product_4513_0_opt.xyz
  O  2.93156400 -0.61123200  0.16625700
  C  1.73623455 -0.55812365  0.02400838
  C  0.96477094  0.68206702  0.06250850
  C -0.35234300  0.81097233 -0.11119533
  C -1.36278948 -0.27132009 -0.35208824
  O -2.41380326 -0.20464190  0.58807131
  H -2.05625329 -0.34654235  1.47174975
  H -0.90218222 -1.26672546 -0.35202387
  H -1.83921200 -0.10713196 -1.32344050
  H -0.79452581  1.79719883 -0.03781590
  H  1.56811781  1.56183887  0.24810892
  H  1.15245505 -1.48356967 -0.15405036
