16
opt_min/./Product_928_0_opt.xyz
  C  1.85518000 -0.32261800 -0.34711600
  C  0.86475046  0.44876158  0.53735978
  C -0.56085727  0.02068982  0.38776969
  C -1.55141640  0.21072674 -0.72263146
  H -1.48137652  0.67395635 -1.68327781
  C -1.25168393 -1.16378622 -0.22005207
  H -0.65876343 -1.81353520 -0.85868019
  H -2.00326982 -1.69520255  0.35428225
  C -1.82025451  0.80651924  0.62284987
  H -1.71153844  1.88158816  0.72172979
  H -2.60592307  0.38178791  1.24215556
  H  1.14747164  0.32631329  1.58932035
  H  0.91935272  1.52108094  0.31703280
  H  2.40281552 -1.06515334  0.23134476
  H  1.33828403 -0.83745339 -1.15314244
  H  2.56839914  0.36014199 -0.80016912
