9
opt_min/./Product_4559_0_opt.xyz
  O -4.09672614 -0.04498745  2.32614137
  C -4.04331671  1.01996604  1.86412581
  C -3.95668195  2.25012086  1.46383839
  C -3.22751886  2.81681914  0.27055844
  O -1.90141645  3.23665923  0.49636068
  H -1.89980509  3.90760726  1.19054995
  H -3.82280073  3.66435364 -0.09200762
  H -3.17293555  2.06260808 -0.51782887
  H -4.42321840  2.95410868  2.13781025
