17
opt_min/./Product_10112_0_opt.xyz
  C -1.22448400  1.05556800  0.31514000
  C -0.67546065 -0.33798535  0.18530087
  C -1.67912972 -1.42287270 -0.07981631
  H -2.45667268 -1.07487653 -0.75356868
  H -2.15501425 -1.72358945  0.85269017
  H -1.20629315 -2.29864212 -0.51349699
  C  0.61377799 -0.62848116  0.32005117
  C  1.71822508  0.33754950  0.60265593
  C  2.81198527  0.31082992 -0.43022231
  O  3.82037711  0.95854738 -0.38291260
  H  2.61910452 -0.36504847 -1.28968608
  H  2.18188466  0.11610296  1.56811859
  H  1.35048754  1.36385317  0.65752934
  H  0.92814724 -1.65742430  0.21100147
  H -0.86565462  1.68770294 -0.49313590
  H -0.92521136  1.50912126  1.25710130
  H -2.30925062  1.04211929  0.27678861
