12
opt_min/./Product_8183_0_opt.xyz
  O -1.01158704 -1.74083298 -1.19023400
  C -1.20961071 -0.38358244 -0.85629485
  C  0.14127477  0.29411371 -0.84265747
  C  0.88506505  0.36692489  0.21401304
  C  1.54512992  0.46238767  1.33386271
  N  1.43498004  1.53169994  2.16861684
  C  1.34678405  2.43856726  2.89732732
  H  2.25179681 -0.28876440  1.66959483
  H  0.49361613  0.64641252 -1.80302999
  H -1.84985002  0.10719851 -1.60463333
  H -1.67877573 -0.27939920  0.13151978
  H -1.83193708 -2.22569630 -1.04308949
