12
opt_min/./Product_2665_0_opt.xyz
  C  1.69963400 -1.04039400 -0.05103100
  N  1.10136782 -0.06040807 -0.57044089
  C  0.02643491  0.59200705  0.02258024
  N  0.12739355  1.99530920 -0.00419945
  H -0.71659186  2.45499469 -0.31967411
  H  0.91211654  2.26986282 -0.58353150
  C -1.07191873 -0.03419574  0.47591047
  O -1.28156805 -1.38232863  0.52082306
  H -0.52302097 -1.85008321  0.14905862
  H -1.93760559  0.51316625  0.81281166
  H  2.50099174 -1.49747639 -0.61428876
  H  1.48163795 -1.46037191  0.93248908
