10
opt_min/./Product_3366_0_opt.xyz
  C -1.58756600  0.15903600  0.46721400
  N -0.18792942 -0.01403264  0.22479699
  C  0.63085721  0.91513149 -0.35498451
  C  1.81924995  0.18697867 -0.33093379
  H  2.79945591  0.45214349 -0.67092845
  O  1.63839013 -1.02951987  0.21853206
  N  0.37845735 -1.14737419  0.56573331
  H -1.92675134 -0.60235452  1.16646249
  H -1.75744524  1.15479421  0.87464512
  H -2.13821149  0.06986384 -0.47037746
