11
opt_min/./Product_502_0_opt.xyz
  O  2.01140800  0.86876300  0.21931400
  C  0.75157237  0.42434585 -0.00403912
  C -0.12404515  0.55263278 -0.99929391
  H -0.14098701  1.04154755 -1.95283031
  C -1.17189886 -0.27107026 -0.29750881
  H -1.45671181 -1.20110411 -0.78835192
  H -2.06980644  0.27681551 -0.01409654
  C -0.13979436 -0.43253667  0.84749078
  H  0.20897207 -1.45273992  1.00277359
  H -0.44226525  0.00004060  1.80188596
  H  2.35586450  0.46003476  1.01913798
