12
opt_min/./Product_7493_0_opt.xyz
  O  0.28019040 -1.55229222 -1.87943703
  C  0.37667377 -0.77136125 -0.93175091
  C  1.63636117 -0.09970764 -0.61003474
  C  2.69884090  0.41187827 -0.38859448
  H  3.63707130  0.85315473 -0.21513380
  C -0.60084668 -0.39575361 -0.03999431
  C -1.86234510 -0.26850162  0.63744878
  H -2.67133981  0.34260391  0.23725955
  H -2.21842178 -1.03249974  1.32910358
  N -0.68013962  0.50087714  1.11340144
  H -0.67388929  1.51145203  0.97073741
  H -0.26078174  0.23103564  2.00411339
