7
opt_min/./Product_2543_1_opt.xyz
  N  0.38825000  0.62018100 -0.32929000
  C  1.55138596  0.45270554 -0.17910085
  O  2.71069037  0.45611718 -0.13113253
  C -0.93022153  0.16051499 -0.10547497
  H -0.99241079 -0.44449503  0.80136974
  H -1.26167818 -0.43061063 -0.96200682
  H -1.57281058  1.03614971 -0.00470012
