12
opt_min/./Product_4915_0_opt.xyz
  O -1.45877600 -1.62689100  0.74516500
  C -0.84000965 -0.69419916  0.30774255
  C -1.35842803  0.71138851  0.25674553
  H -0.85201519  1.29461513  1.02628951
  H -2.42743730  0.72039104  0.45507783
  H -1.14281080  1.16913139 -0.70579471
  C  0.57380091 -0.89496296 -0.23614359
  O  1.16584888  0.31107410 -0.70333736
  C  2.26984608  0.66936325 -0.12075683
  H  2.55833952  1.61788351 -0.62665985
  H  1.19950534 -1.34235254  0.54661189
  H  0.51829714 -1.59623020 -1.07655206
