11
opt_min/./Product_5471_0_opt.xyz
  C -1.31114956 -1.03383005 -1.22553259
  O -0.06031018 -0.42450023 -0.97596129
  C  0.06388582  0.13926830  0.22688856
  N -0.88688311  0.13010394  1.06711060
  H -0.69024178  0.58095292  1.94881301
  C  1.35046279  0.73459152  0.44979422
  C  2.40286689  1.25806674  0.68730376
  H  3.31842304  1.72004723  0.91181761
  H -1.25929325 -1.41975466 -2.23984206
  H -1.49543288 -1.84135198 -0.51702592
  H -2.11979765 -0.30673138 -1.12754714
