16
opt_min/./Product_8958_0_opt.xyz
  C -2.76427100  0.42030000 -0.39287000
  C -1.57961183 -0.13557924  0.32672451
  N -0.56176415 -0.59190103 -0.32392521
  C  0.10505480 -0.85858549 -1.41711005
  H  0.04350410 -0.88364038 -2.46793380
  C  0.75607711 -1.15889240 -0.14656778
  C  1.85802973 -0.27021122  0.43072076
  O  1.89328543  0.97180478 -0.23993373
  H  2.77658185  1.14236465 -0.57431281
  H  1.65738725 -0.08998378  1.49732305
  H  2.80927877 -0.80514442  0.34762540
  H  0.79162717 -2.17437217  0.26360243
  H -1.55445356 -0.17392669  1.40185201
  H -2.46248214  0.77643625 -1.37679713
  H -3.54997048 -0.32861244 -0.53166347
  H -3.18966654  1.24989608  0.16978316
