16
opt_min/./Product_3914_0_opt.xyz
  C -1.90116600 -1.51038200 -0.48190300
  O -1.59835685 -0.27458979 -0.20925664
  C -0.43965555  0.24338321  0.03381723
  C -0.42993035  1.71665615  0.29939446
  H -1.45192158  2.05287129  0.45652905
  H  0.15961291  1.95221869  1.18314000
  H -0.01402733  2.27797546 -0.54061284
  C  0.79741152 -0.60681734  0.02231882
  C  2.09447198  0.16888426  0.20712139
  H  2.16209355  0.57828437  1.21158593
  H  2.16208797  0.98542215 -0.50615159
  H  2.94470998 -0.49123909  0.05197023
  H  0.71508560 -1.36835233  0.81134822
  H  0.83504331 -1.15232567 -0.93142373
  H -1.18176257 -2.30416280 -0.51611704
  H -2.94727806 -1.70177728 -0.63087180
