12
opt_min/./Product_5665_0_opt.xyz
  N -1.80978100  0.40111400 -0.29395200
  C -0.46208241  0.16211768 -0.13764483
  C  0.57291217  1.01279174 -0.19889691
  H  0.61576434  2.06007260 -0.42774886
  N  1.74295420  0.29292202  0.12025726
  H  2.64203820  0.75229787  0.13515601
  C  1.58375051 -0.98428270  0.39059818
  C  0.08569091 -1.18337495  0.24388738
  H -0.32315308 -1.54465500  1.18858372
  H -0.11364661 -1.94425875 -0.51305286
  H -2.36851176 -0.40692718 -0.51963924
  H -2.05835711  1.23592591 -0.80133203
