10
opt_min/./Product_4908_0_opt.xyz
  N -1.58297000 -0.69257800 -0.16239600
  C -0.57304493  0.02984088  0.04078554
  O -0.70966894  1.35974662  0.05136449
  H -1.63551469  1.58369117 -0.10907917
  C  0.86123312 -0.40696101  0.28770820
  O  1.75992801  0.14210615 -0.64500659
  H  1.67442211  1.10129649 -0.62384127
  H  0.93842263 -1.48982246  0.19187313
  H  1.14168847 -0.11723551  1.31395381
  H -1.41853255 -1.68905183 -0.17076935
