12
opt_min/./Product_4170_0_opt.xyz
  C -0.98659600  1.04056900  0.00986200
  H -1.71488108  1.80871772 -0.14714115
  C -1.16226814 -0.36349688 -0.49208690
  H -1.85627070 -0.39390612 -1.33205904
  H -1.54712386 -1.02788169  0.30375105
  O  0.07486304 -0.87304878 -0.96839681
  C  1.09498854 -0.79466366  0.01281386
  H  2.02043125 -1.07724217 -0.49305526
  H  0.90498512 -1.53704821  0.81123132
  C  1.18922516  0.60337158  0.54946140
  H  2.11439853  1.03031344  0.88482424
  O  0.17958508  1.41016575  0.43802315
