9
opt_min/./Product_1589_1_opt.xyz
  C -4.50011440  3.82871269 -6.04705105
  C -3.33903737  4.02954955 -6.97955630
  H -2.88253672  5.00595283 -6.80855262
  H -2.58395464  3.26391245 -6.81853884
  H -3.67085785  3.98696342 -8.01530066
  C -4.35755594  3.28457248 -4.87892843
  N -4.34245071  2.40098072 -4.04659307
  H -4.02766178  2.58427425 -3.10197622
  H -5.38216273  4.42195638 -6.23210780
