14
opt_min/./Reactant_6219_0_opt.xyz
  C  0.90114600  1.13141000 -1.54705300
  O  0.86601267  0.20478310 -0.49308326
  C -0.42765739 -0.11852645 -0.04478486
  H -1.22966308  0.38656627 -0.57032817
  C -0.69407987 -1.50643163  0.46086978
  H  0.12169760 -2.20969786  0.45623351
  H -1.66188412 -1.94262673  0.26667871
  C -0.59025734 -0.35025548  1.43072379
  O  0.51741113 -0.29540745  2.26003734
  H  1.17038782  0.30549404  1.87525603
  H -1.49629106  0.01501841  1.90591997
  H  0.47986406  2.09964552 -1.24917552
  H  0.36886239  0.76819315 -2.43080598
  H  1.95597567  1.26027306 -1.78883829
