16
opt_min/./Product_8006_0_opt.xyz
  C  2.85216006  0.30102345 -0.28100643
  C  1.58284310  0.41948322 -1.07564763
  C  0.45926168 -0.14817770 -0.76288422
  C -0.66200733 -0.69546815 -0.40102712
  C -1.69418368 -0.00543636  0.41283591
  H -1.29828873  0.65526846  1.17971606
  C -2.99177135  0.36461283 -0.21561991
  H -3.15075266  0.09437856 -1.25594798
  H -3.49786403  1.27041138  0.09483178
  N -2.91747663 -0.66938521  0.79078179
  H -3.01055573 -1.61567376  0.42616003
  H -0.91005090 -1.69890604 -0.73262753
  H  1.65117997  0.98881248 -1.99566051
  H  3.38220018 -0.61344328 -0.55638679
  H  2.62463048  0.25310306  0.78297545
  H  3.50333205  1.15055470 -0.47196175
