15
opt_min/./Product_69_0_opt.xyz
  C  1.55534900 -0.40919100  0.27756000
  C  0.31834422  0.04961181 -0.48391340
  H  0.56517312  0.14787737 -1.54421385
  C -0.86282854 -0.91922984 -0.31752803
  H -0.62113346 -1.78695766  0.30167421
  H -1.24846089 -1.27120105 -1.27972656
  N -1.87632618 -0.09395370  0.34478288
  H -2.75261703 -0.53636041  0.58447312
  C -1.63342300  1.16136029  0.56101964
  C -0.23303419  1.39414108  0.06302519
  H -0.20328449  2.18782299 -0.68133543
  H  0.34979989  1.74598992  0.91933674
  H  1.31366719 -0.57830195  1.32568731
  H  1.94808828 -1.33600327 -0.13854875
  H  2.33614748  0.34623104  0.22110790
