13
opt_min/./Product_11137_0_opt.xyz
  C -2.09958600  0.08223000  0.16820800
  C -0.65310180 -0.08096387 -0.27888696
  O  0.16692164 -0.03343104  0.87276230
  C  1.50517123 -0.04003030  0.69960686
  C  2.20171957 -0.16370291 -0.42026128
  H  1.74362061 -0.28282807 -1.38610835
  H  3.27399004 -0.15115855 -0.39701178
  H  1.99680531  0.06466262  1.65791774
  H -0.37474044  0.72755585 -0.96706726
  H -0.52082711 -1.04044462 -0.79539765
  H -2.20161176  0.99087636  0.75412005
  H -2.39946230 -0.75882626  0.78594428
  H -2.74771165  0.13792983 -0.70056302
