9
opt_min/./Reactant_0_0_opt.xyz
  C -1.33545300 -0.02269200  0.00171000
  C  0.13670674 -0.02990798 -0.01480915
  N  0.88514935 -0.62582284 -0.90548297
  O  2.14402335 -0.36903560 -0.53447254
  N  2.11737808  0.39331402  0.58150797
  N  0.93434697  0.61076069  0.89705036
  H -1.69176961 -0.17845945  1.01688236
  H -1.69740402  0.94625146 -0.33831578
  H -1.71169962 -0.79704346 -0.65828669
