13
opt_min/./Product_8315_0_opt.xyz
  C -1.21157196 -1.18592714  0.88675086
  O -0.23068923 -0.23617521  1.26982249
  C  0.21204515  0.56102704  0.22884024
  C  1.14489690  0.14003785 -0.75915965
  N  1.58792549 -1.05143138 -0.79332536
  H  2.24600297 -1.24261945 -1.54511282
  H  1.41159685  0.93910149 -1.47113973
  N -0.23675815  1.77620854  0.21430441
  C -0.64879416  2.87500717  0.20764095
  H -1.05449403  3.83806046  0.15687362
  H -1.54740627 -1.65817862  1.80973102
  H -0.78311806 -1.93945037  0.22036002
  H -2.06181618 -0.69987890  0.39111541
