13
opt_min/./Product_6083_0_opt.xyz
  C  1.73295500 -0.51006900 -0.00941600
  C  0.45951070  0.01438024 -0.65932343
  N -0.11028538  1.13281362  0.14756172
  H  0.31675660  1.48014260  1.01240029
  H -0.61639958  1.86297562 -0.35019236
  C -0.76910887 -0.17872592  0.23523890
  C -2.06542610 -0.35791782 -0.40607308
  O -2.88624410 -1.18041856 -0.08690943
  H -2.22555940  0.30347399 -1.28297072
  H -0.67319459 -0.65278630  1.21103750
  H  1.55431731 -1.37523201  0.63260168
  H  2.22189714  0.25858258  0.59591931
  H  2.42655169 -0.81340872 -0.79036356
