15
opt_min/./Product_7805_0_opt.xyz
  C -1.59407543 -1.19741842 -0.32899289
  C -0.45589376 -0.27912230  0.06103431
  C -0.02797232  0.70147144 -1.01923420
  H  0.24704595  0.18052489 -1.93126265
  H -0.84432463  1.38835586 -1.22760172
  H  0.82722426  1.27277850 -0.66366138
  O  0.64135810 -1.11492491  0.47897397
  C  1.21711571 -0.59377856  1.54452127
  C  1.31892801  0.39639905  2.24351483
  H  0.23406871  1.35404588  3.41506525
  O  1.36385109  1.19048134  3.27776053
  H -0.76602829  0.29547669  0.94545783
  H -1.21316878 -2.01523690 -0.93724008
  H -2.06903964 -1.61867074  0.55275053
  H -2.33950166 -0.65553526 -0.90621028
