15
opt_min/./Product_10506_0_opt.xyz
  C  1.94909700 -0.06381600  0.45839400
  C  1.08335235 -0.23164122 -0.79500868
  C -0.32708071 -0.61820901 -0.39928096
  C -1.19476296  0.57954311 -0.00296709
  C -2.56058087  0.16523516  0.47673392
  O -2.80396180 -0.21923351  1.58308394
  H -3.35862683  0.24323636 -0.28838275
  H -1.25916431  1.25806745 -0.85374210
  H -0.68033654  1.08846655  0.81632546
  O -0.70610327 -1.75456142 -0.36652080
  H  1.08520539  0.69288084 -1.37143660
  H  1.49234375 -1.03589002 -1.40648931
  H  1.86280493 -0.94352618  1.09018434
  H  2.99044873  0.04937219  0.16918431
  H  1.65455800  0.81018880  1.03223341
