12
opt_min/./Reactant_2803_0_opt.xyz
  C  1.38945800 -0.63957100  0.16833900
  C  0.73636535  0.71629565  0.14197952
  O  1.34689310  1.75134909  0.06183070
  C -0.76763225  0.71949260  0.19660812
  H -1.19375631  1.67945682  0.48118469
  C -1.56515041 -0.13681288 -0.69943930
  H -2.52960684  0.22745108 -1.03484299
  H -1.07487213 -0.83033472 -1.37170355
  O -1.44750106 -0.41012702  0.65992998
  H  1.72222642 -0.88040888 -0.84046988
  H  0.71473216 -1.40911812  0.52817185
  H  2.27237043 -0.59305072  0.80194144
