14
opt_min/./Product_1437_0_opt.xyz
  C  1.91094900  0.01804000 -0.46799500
  C  0.72203738 -0.25346060  0.42346245
  H  0.79966249 -1.12653229  1.06481712
  O  0.09810714  0.85124013  1.04605554
  C -0.63137746  0.18528573  0.05527927
  O -0.76387580  0.83218436 -1.15832617
  H -1.30341597  1.62096946 -1.03975678
  C -1.86082938 -0.57683519  0.51501109
  H -2.76082767 -0.03050329  0.25268192
  H -1.89029738 -1.54925196  0.03262446
  H -1.82511631 -0.71753539  1.58963789
  H  2.70409834 -0.69413790 -0.27053795
  H  1.62065896 -0.05862643 -1.51180989
  H  2.28914121  1.02083312 -0.29165074
