9
opt_min/./Product_2342_1_opt.xyz
  O  2.16963700  0.13535600 -0.58881100
  C  1.14512990 -0.18661899 -0.05718668
  C -0.21245223  0.41260150 -0.34309772
  N -1.32477564 -0.13006263  0.41034837
  H -1.47425857 -1.10575416  0.17738035
  H -1.15033091 -0.06527246  1.40733367
  H -0.14701571  1.48762962 -0.14231908
  H -0.42842145  0.30250561 -1.40931030
  H  1.13522943 -0.97577902  0.72851461
