11
opt_min/./Product_501_0_opt.xyz
  O -0.73405900  1.73767400  0.83659100
  C -0.68850118  0.57532535  0.02886191
  C  0.41093657 -0.10067055 -0.64552639
  C  1.59191370 -0.30139701  0.30898414
  H  1.85257839  0.64717584  0.77427778
  H  2.45357006 -0.68068571 -0.23609758
  H  1.32946336 -1.01020419  1.09219178
  H  0.72818449  0.52610069 -1.48403137
  H  0.05410316 -1.05901543 -1.03399102
  C -1.82702469  0.69223935  0.60468964
  H -2.85658314  0.84369291  0.76544950
