13
opt_min/./Product_8548_0_opt.xyz
  C  1.90397955 -0.96853040 -0.01820010
  C  0.94865859  0.17714694 -0.18323553
  N  1.54929298  1.34791335 -0.63517766
  O  0.87501778  2.22165952 -1.16430318
  C -0.30215194  0.11800790  0.24091967
  C -1.50449219  0.19894651  0.73716272
  N -2.68680404  0.05724184  0.00453004
  H -3.25622786 -0.73566177  0.26466079
  H -2.52683874  0.09659471 -0.99355152
  H -1.64566930  0.42075859  1.79058101
  H  2.26766576 -1.30431527 -0.98796169
  H  2.75966610 -0.63543667  0.56462110
  H  1.41972243 -1.79839935  0.48837418
