12
opt_min/./Product_3160_0_opt.xyz
  O  2.21145200  1.75430300  0.23124600
  C  1.59248553  0.78324068 -0.06505669
  C  1.39248721 -0.65604615  0.03607028
  H  1.03770126 -1.05377459  0.97627395
  H  2.04954133 -1.33422598 -0.49260113
  C  0.43531168  0.22618978 -0.78961110
  C -0.94860380  0.51768624 -0.34640887
  C -1.61504006 -0.14544200  0.57991446
  H -1.19894788 -0.99213179  1.10065430
  H -2.61839338  0.12481708  0.85962598
  H -1.40065968  1.35891844 -0.85532159
  H  0.53126712  0.16290157 -1.86960246
