14
opt_min/./Product_5317_0_opt.xyz
  O  2.31788700  0.43071500  1.29857900
  C  2.11424849  0.18870106 -0.08051980
  C  0.77610439 -0.53830225 -0.28825756
  C -0.35718465  0.40279750 -0.19615304
  C -1.45795971 -0.08275108  0.62528489
  O -2.67363288  0.60861818  0.53448242
  H -2.49537759  1.47676922  0.15154025
  H -0.99967696  0.10436009  1.62737021
  H -1.69493749 -1.15724809  0.59492279
  H  0.72973520 -1.41244572  0.37861644
  H  0.74412749 -0.90685704 -1.32082621
  H  2.93933677 -0.44457357 -0.42977829
  H  2.11081267  1.11912546 -0.65416321
  H  2.31384213  1.37490426  1.46905362
