9
opt_min/./Product_5101_0_opt.xyz
  O  2.38744807 -0.24136100  0.03193396
  C  1.08626598 -0.10630530  0.00649875
  N  0.33377706  0.82588484 -0.52047115
  N -0.82475725  0.01036738  0.01800141
  N -2.03903377  0.21556068 -0.05063710
  H -2.25908774  1.07143682 -0.55583538
  C -0.01238009 -0.90261009  0.52981573
  H -0.20558264 -1.79806020  1.07491980
  H  2.80692937  0.50018676 -0.42975287
