7
opt_min/./Product_118_1_opt.xyz
  N  1.13089000 -0.09759500 -0.78021200
  C  0.38437762  0.03278804  0.21927903
  C -1.09756467 -0.00442532  0.03016132
  O -1.66318123 -0.15065341 -1.01281097
  H -1.65989393  0.12088149  0.98037867
  H  0.71896551  0.17688476  1.25831601
  H  2.13373742 -0.06594170 -0.60452470
