12
opt_min/./Product_9148_0_opt.xyz
  C -1.70732000 -0.51914900  0.01144100
  C -0.25057890 -0.27626580  0.01754429
  N  0.64093991 -1.16675585  0.17198303
  C  1.89977137 -0.53971754  0.14125231
  O  2.96413169 -1.05075236  0.26978711
  O  1.73804278  0.81034552 -0.03488179
  C  0.36791441  1.09544732 -0.14117525
  H  0.05975226  1.79200712  0.64575831
  H  0.13874682  1.53964230 -1.11244004
  H -2.24594569  0.31504648 -0.42962210
  H -1.91788283 -1.44007561 -0.52122184
  H -2.04898568 -0.64970787  1.03605933
