10
opt_min/./Product_3938_0_opt.xyz
  O  1.88193900  1.43894400  0.20735600
  C  0.96454600  0.67106437  0.09748705
  N -0.36364606  0.88593120  0.11496672
  H -0.78596830  1.78826857  0.23525514
  C -1.09760894 -0.34653054 -0.05740925
  H -1.71354967 -0.33541571 -0.96135206
  H -1.75263654 -0.55852542  0.79189451
  C -0.04363522 -1.41277331 -0.18637575
  N  1.08336356 -0.73835858 -0.08884955
  H  1.99157661 -1.17850688 -0.14041218
