7
opt_min/./Product_5935_1_opt.xyz
  N -1.04950400 -0.11528900  0.03952000
  C  0.28350227  0.33104897 -0.18795531
  C  1.38475977 -0.31641431  0.05281314
  O  2.40228720 -0.82630361  0.32593842
  H  0.37964493  1.32712680 -0.59929320
  H -1.05633326 -0.94678584  0.62226123
  H -1.53405167 -0.31877911 -0.83200756
