12
opt_min/./Product_3826_0_opt.xyz
  C -1.62678975 -0.64305671 -0.29123880
  C -0.76369159  0.36470361  0.43228164
  H -1.26273811  1.31759331  0.63019521
  N  0.16547918 -0.08097640  1.40041812
  H  0.35974636 -0.42814960  2.30746734
  C  0.71204384  0.38936723  0.23044347
  C  1.76749646  0.65093934 -0.44419750
  N  2.76737100  0.94406791 -1.09827582
  H  3.14820220  0.23777518 -1.72863787
  H -2.20153973 -0.15083468 -1.07261981
  H -1.01695566 -1.42324920 -0.74176019
  H -2.32066375 -1.10631529  0.41073116
