11
opt_min/./Product_4384_0_opt.xyz
  O  2.22794800  0.38608500 -0.15396000
  C  0.90854068  0.04808880 -0.11143904
  N -0.01103456  1.03674667  0.00336584
  H  0.21347771  2.01700085  0.02078535
  C -1.26146788  0.48033499  0.00634225
  H -2.12826571  1.10540551  0.08622554
  C -1.12211044 -0.87121812 -0.09285146
  H -1.90857724 -1.59984376 -0.11060832
  C  0.26079290 -1.15432831 -0.16761445
  H  0.71401719 -2.12307892 -0.24798047
  H  2.75489874 -0.41621166 -0.08432139
