7
opt_min/./Product_1007_0_opt.xyz
  O  0.05283900 -0.81751900 -0.81986000
  C  0.71757875  0.13482412 -0.04508330
  H  1.37107255 -0.26971367  0.71703471
  H  1.08031562  1.00392746 -0.57588867
  C -0.72271592 -0.08879781  0.07918011
  H -1.10895462 -0.63635103  0.92923095
  H -1.40338943  0.62767970 -0.36370518
