11
opt_min/./Product_4451_0_opt.xyz
  N -0.00888700 -1.41868300  0.02685700
  C  1.08352349 -0.79491956 -0.09146358
  H  2.02877722 -1.31082599 -0.13096520
  C  0.94909347  0.68682332 -0.15231778
  H  1.66496004  1.31906684 -0.65833673
  C -0.51079727  0.89962202 -0.06787554
  H -1.04178147  1.71680230 -0.53382097
  C -1.12256839 -0.49007234  0.02573547
  H -1.69461362 -0.63420330  0.94525849
  H -1.76508013 -0.72252647 -0.82840069
  O  0.33205912  1.20428762  1.00411837
