16
opt_min/./Product_9639_0_opt.xyz
  C -2.10807000  0.78090600 -0.61428700
  C -1.37895774 -0.26150189  0.19794534
  H -1.70083669 -0.30035825  1.24002248
  N -1.04060851 -1.50170797 -0.44824071
  H -1.14535928 -2.33247896  0.12650393
  C  0.05488779 -0.62853989 -0.04580709
  C  0.86388068 -0.05091562 -1.12448866
  O  2.10566992  0.27827045 -1.04113795
  C  2.91785167  0.28979169 -0.03262924
  H  3.92163323  0.59215269 -0.25952538
  H  2.64461545 -0.01042404  0.96412437
  H  0.45596830  0.03060483 -2.11775121
  H  0.62742497 -0.89241766  0.84267053
  H -2.34541060  1.63408151  0.01743806
  H -1.50423944  1.12262307 -1.45042523
  H -3.03159290  0.35969386 -1.00780873
