17
opt_min/./Product_8608_0_opt.xyz
  C -1.90555400 -0.28311900  0.19729900
  C -0.64464172  0.18123593 -0.49922476
  H -0.88227880  0.44976064 -1.53158512
  C  0.17312231  1.27122720  0.22049451
  H  0.40356270  2.14212884 -0.39030759
  H -0.26236960  1.60293601  1.15880813
  C  1.38220283  0.32872510  0.38073780
  O  2.59542442  0.73336444 -0.16349198
  H  2.44243052  1.04071509 -1.06611758
  H  1.61307129  0.06373909  1.41269611
  C  0.56112667 -0.78650183 -0.37212757
  C  0.37200796 -2.07509511  0.25851628
  H  1.35374588 -2.43357285  0.62366788
  H  1.02318854 -1.01353460 -1.33831088
  H -2.32179662 -1.13799327 -0.32877818
  H -1.68921015 -0.59023211  1.21652726
  H -2.64712567  0.51331591  0.21016590
