9
opt_min/./Product_5110_0_opt.xyz
  O -0.26509100  1.50992400 -0.20889600
  C -0.28579210  0.14281751 -0.34211065
  N  0.85301083 -0.61765926 -0.21005510
  N  1.87138420 -0.01286615  0.21562858
  H  2.64066268 -0.68857546  0.30386524
  N -1.33457024 -0.40874053 -1.23521865
  C -1.53762545 -0.59373105 -0.01835280
  H -2.20148514 -0.97496128  0.72157475
  H  0.41305597  1.73351256  0.44636602
