14
opt_min/./Product_6264_0_opt.xyz
  C -1.53064600 -0.25823800  0.35809800
  C -0.29578624 -0.03044424 -0.51234915
  H -0.60765238  0.01162952 -1.55939894
  C  0.48712852  1.24484373 -0.11605118
  H -0.00942107  1.79932247  0.68458467
  H  0.64534773  1.91850053 -0.96243014
  O  1.76855293  0.83482617  0.36781150
  C  1.84712100 -0.50945880  0.20805460
  H  2.77984531 -0.95544225  0.50229295
  C  0.76444202 -1.08334184 -0.29488106
  H  0.61285613 -2.12301807 -0.49464844
  H -2.02875195 -1.17989398  0.06824206
  H -1.24838686 -0.33510265  1.40514792
  H -2.23046371  0.56586346  0.24341483
