14
opt_min/./Product_1533_0_opt.xyz
  C -0.85026400 -1.35792400  0.37972100
  C -0.08955865 -0.03826561  0.27839723
  C -1.04340604  1.16070697  0.25799202
  H -1.17761804  1.53723973  1.26750925
  H -2.00868880  0.86526238 -0.14236715
  H -0.61362728  1.93499999 -0.36892596
  C  1.02102988  0.09053820  1.29308028
  C  1.90470454  0.07202263  0.09711999
  H  2.47025210  0.99984557 -0.02993024
  H  2.61342452 -0.76090251  0.06174533
  O  0.83882570 -0.05073898 -0.83850105
  H -1.44378415 -1.49005722 -0.52070696
  H -0.15546335 -2.19007387  0.46174895
  H -1.49415962 -1.34230127  1.25300431
