15
opt_min/./Product_11648_1_opt.xyz
  O  2.14827000  0.96354700 -0.41939300
  C  1.32076927 -0.17147405 -0.43623945
  C  0.07483759 -0.00611301  0.45199635
  H  0.40861080  0.20986853  1.47200015
  C -0.85433936  1.06789009 -0.06313461
  H -0.56436792  2.08785800 -0.19434209
  C -2.02115203  0.51664231 -0.35828861
  H -2.91063156  0.96952314 -0.75626273
  O -2.11615200 -0.81387026 -0.10872466
  C -0.85421533 -1.23955942  0.40729969
  H -0.46347786 -2.01883632 -0.25295952
  H -1.02594395 -1.67157756  1.39647538
  H  1.01955769 -0.29072383 -1.47968740
  H  1.86956532 -1.07001631 -0.12030991
  H  2.46136948  1.09791789  0.48249435
