11
opt_min/./Product_1575_0_opt.xyz
  C -1.28324806 -0.74195104 -1.32578292
  N -0.65545401  0.24064976 -0.48458568
  N  0.41749564 -0.10067436  0.19002137
  C  0.92787505  0.64964657  1.08635554
  N  2.06196316  0.27225903  1.70573803
  C  3.04046877 -0.03980295  2.26683056
  H  0.52481795  1.62518666  1.39142963
  H -1.15758614  1.10002255 -0.26566923
  H -1.74924937 -0.24739825 -2.17580287
  H -0.51708231 -1.42506707 -1.67815103
  H -2.04431945 -1.31740093 -0.79126349
