15
opt_min/./Product_8431_0_opt.xyz
  C  0.86885900 -0.38970900 -0.73143200
  H  1.89945740 -0.29745689 -0.39712849
  H  0.81581411 -0.94308961 -1.66668842
  C  0.10734529  0.94299025 -0.67728981
  H  0.42648938  1.87252610 -1.13788580
  O -1.18540668  0.60265341 -1.11601122
  C -1.44025553 -0.60508864 -0.38824985
  H -1.65845897 -1.43042618 -1.06885964
  H -2.30459082 -0.45000947  0.26953523
  C -0.12449565 -0.75190819  0.38087679
  H -0.01568709 -1.62296613  1.02375889
  C  0.05152512  0.71291826  0.87032809
  C  1.16950123  1.19968427  1.63434977
  H  1.72538161  0.37789865  2.11854562
  H -0.81615063  1.19814523  1.33453333
