12
opt_min/./Product_9751_0_opt.xyz
  O -2.55243100 -0.77752900 -0.06405600
  C -2.03007209  0.26455534  0.20430897
  C -0.55066238  0.48318885  0.38114470
  C  0.25493197 -0.76027141  0.13792395
  N  1.50110854 -0.83046049  0.10409829
  C  2.56318026 -0.02416002  0.27408274
  O  3.08794575  0.26623919  1.31590854
  H  3.01054299  0.24466421 -0.71020504
  H -0.31232309 -1.67043572 -0.03820932
  H -0.37147163  0.83732404  1.40195723
  H -0.22610269  1.29044888 -0.28197176
  H -2.63019974  1.17335877  0.40315494
