14
opt_min/./Reactant_9259_0_opt.xyz
  C -0.74150500 -1.20602700 -0.18078500
  C -0.28032467  0.24460840 -0.38750821
  C -1.38056696  1.19687532  0.02352276
  O -1.27628556  2.16614271  0.70956048
  H -2.35798863  0.90051338 -0.41830224
  C  1.01492349  0.44646751  0.40275397
  O  1.05536409  0.66403298  1.58527245
  N  2.13374548  0.25584418 -0.34257950
  H  3.02314163  0.39485078  0.10846175
  H  2.11416964  0.17420649 -1.34216912
  H -0.11493324  0.41638132 -1.45689432
  H -1.60370165 -1.42757072 -0.80610011
  H  0.06110786 -1.89370927 -0.43508682
  H -1.00946118 -1.36090209  0.86052946
