12
opt_min/./Product_5634_0_opt.xyz
  C  0.05614000 -0.95013500  0.23571600
  H  0.10610482 -1.50549848  1.17716252
  H -0.26367270 -1.64335601 -0.54361934
  C  1.35128538 -0.29481808 -0.06129687
  H  2.26849724 -0.85688216 -0.16115025
  C  1.21860632  1.04820681 -0.21748679
  H  2.03292407  1.72388022 -0.43239498
  C -0.15289993  1.42901459 -0.28670302
  C -0.92298792  0.24052146  0.22483335
  O -2.03807746 -0.07243142 -0.58438462
  H -2.59482186  0.71220317 -0.64631095
  H -1.26132302  0.47969693  1.24876189
