16
opt_min/./Product_11128_0_opt.xyz
  C  0.20421892 -1.73750997 -0.73215414
  C -0.72205037 -0.60049086 -0.41577179
  C -1.92043997 -0.78647211  0.11274033
  H -2.29760507 -1.77408798  0.31585254
  H -2.57609283  0.03410549  0.35297337
  C -0.19097132  0.77909442 -0.69824081
  C  0.97012208  1.12363370  0.25390907
  C  1.42949848  2.46928692  0.03119861
  N  1.78326263  3.53914438 -0.16160193
  H  0.63564367  1.03569012  1.29249717
  H  1.80926623  0.44133823  0.09808275
  H  0.16319398  0.84260133 -1.72954675
  H -0.98558989  1.51620728 -0.56591647
  H  0.89824912 -1.90004025  0.09269026
  H  0.78714434 -1.52992582 -1.62701567
  H -0.35317361 -2.65789660 -0.88504668
