11
opt_min/./Product_3051_0_opt.xyz
  O -0.46649400  1.46685700  0.70389100
  C -0.11242517  0.52154213 -0.25678904
  H  0.01312585  1.10887456 -1.17222993
  C  1.17896472 -0.31964844  0.12814482
  H  2.04506135 -0.06868598 -0.48908126
  H  1.43993782 -0.16550145  1.17950067
  N  0.82413950 -1.68227603 -0.26081831
  C -0.43171897 -1.66816131 -0.26277745
  C -1.19759322 -0.58785408 -0.22006483
  H -2.24764672 -0.42813960 -0.31139902
  H -0.65427699  1.01738477  1.54067326
