13
opt_min/./Product_1201_0_opt.xyz
  C -1.92523400  0.51328100 -0.60641100
  C -0.78692364  0.21912913  0.34344031
  O -0.77654257  0.58907208  1.48496927
  C  0.37182733 -0.53554890 -0.30660698
  N  1.33961813 -0.95725953  0.65534864
  C  2.32713979 -0.23701789  0.91937292
  H  2.54577328  0.72323584  0.43129133
  H  3.01454590 -0.56861046  1.68156784
  H  0.78475117  0.13236912 -1.08231438
  H -0.03181678 -1.42868504 -0.79212996
  H -1.91960147  1.58046644 -0.82374432
  H -2.86819494  0.28563176 -0.11690221
  H -1.84464772 -0.03964421 -1.53636084
