13
opt_min/./Product_4079_0_opt.xyz
  C  1.24280300 -1.34444200 -0.18264600
  C  0.75547146  0.03833877 -0.58682511
  H  1.56222785  0.74413986 -0.76588072
  C -0.54138302  0.21081213 -1.32966034
  H -1.04522569  0.08437113 -2.25633157
  C -0.55500483  0.56668385 -0.07544029
  C -1.28475194  1.09205818  1.08671750
  H -2.07284922  0.39624984  1.37337900
  H -1.75415542  2.04049125  0.82694682
  H -0.62810980  1.25196186  1.94015419
  H  1.09219098 -2.05676668 -0.99342844
  H  2.30043802 -1.32464332  0.06025735
  H  0.69610244 -1.71325618  0.68324953
