17
opt_min/./Product_10583_0_opt.xyz
  C  1.98794200  0.31738800 -0.54696900
  C  0.98056032 -0.48617194  0.23406436
  H  1.21045523 -1.54442350  0.28695768
  C  0.28393152  0.11281566  1.42668098
  H  0.52063008  1.13482365  1.68381579
  H  0.09490376 -0.51631657  2.28334646
  C -0.47754127 -0.13125020  0.16015072
  C -1.69028693 -1.02594674 -0.00787130
  H -2.15721680 -1.47302121  0.86966427
  H -1.54943527 -1.82033189 -0.74588635
  C -2.44720828  0.09375968 -0.67961945
  C -1.18211076  0.91823661 -0.67774066
  H -0.80653698  0.99968634 -1.70041328
  H -1.28283718  1.92992822 -0.28527859
  H  1.76066471  1.37978126 -0.48459169
  H  1.98988919  0.02897835 -1.59690723
  H  2.99087788  0.16431815 -0.15145416
