19
opt_min/./Product_7421_0_opt.xyz
  C  2.54560500 -0.44152300  0.55153000
  C  1.33066974 -0.01628819 -0.26541432
  H  1.60820933 -0.04615448 -1.33365462
  C  0.06186132 -0.86067118 -0.05200501
  H -0.06497366 -1.03982520  1.01774887
  H  0.10495987 -1.82395790 -0.55779124
  C -1.05987876  0.05030437 -0.56638510
  C -2.41384688 -0.22484385  0.06783815
  H -2.78888480 -1.20345626 -0.22291219
  H -2.34083222 -0.19067422  1.15396978
  H -3.13932072  0.52562502 -0.24375193
  H -1.13585584 -0.05141723 -1.65307845
  C -0.51021828  1.45385598 -0.23702785
  H -0.86743306  2.25020169 -0.89430908
  H -0.80404393  1.74651780  0.77814590
  C  0.96360225  1.41648135 -0.16547522
  H  2.86258295 -1.44821447  0.28814510
  H  2.29734511 -0.43061838  1.61157508
  H  3.36827169  0.24891636  0.38730072
