14
opt_min/./Product_10219_0_opt.xyz
  C -1.80395000 -0.10481600  0.10112300
  C -0.40066475 -0.18306467  0.68112630
  H -0.42285937 -0.17142480  1.77944256
  N  0.43834385 -1.22925504  0.12278158
  H  0.33979888 -2.22804381  0.13945111
  C  1.35750929 -0.40559261 -0.45604777
  N  2.37997031 -0.69760233 -1.12934964
  H  2.91203144  0.10412833 -1.45069272
  C  0.61544413  0.79057684  0.06245823
  N  0.79263815  2.01873600 -0.03950036
  H  0.10773438  2.61973850  0.41682676
  H -1.75957625 -0.07215083 -0.98560103
  H -2.31668976  0.78342016  0.46555151
  H -2.38200558 -0.97922181  0.40132099
