9
opt_min/./Product_2727_0_opt.xyz
  C -1.51318700  0.04631000  0.11070400
  O -0.19649481  0.15432331 -0.39529224
  C  0.62129801 -0.84682969 -0.11917240
  O  1.80732066 -0.74527400 -0.57619847
  N  2.26696157  0.34412930 -1.31112741
  C  2.63814989  1.25635009 -1.92064568
  H -2.20329099  0.04369374 -0.73513151
  H -1.62383741 -0.86782571  0.69545272
  H -1.70785917  0.92234447  0.73282173
