16
opt_min/./Product_6817_0_opt.xyz
  C -2.14284330  0.24512580 -0.93553172
  C -2.27849080  10.13451757  6.86730444
  C  1.53335126  5.19491714  9.22686299
  C -25.77136479 -5.41103786 -1.14445153
  C  2.10589542 -9.41578689  6.03358506
  N  7.05556160 -1.54519877 -2.37034758
  O  7.37614631  11.86314066 -2.11562357
  H  11.71983340 -0.50661045  1.81107738
  H -20.45283169 -5.54404847  3.77035608
  H  11.22432857  1.78620191  5.32303258
  H  6.04665294 -2.79031934  21.59508739
  H -6.60862802  4.38007670  6.69670496
  H  21.09493688 -0.85811948  13.03714365
  H  7.38175543  14.87294412  4.09068286
  H -41.98295875  15.59843710  8.70682850
  H  28.05712946  6.56340961  6.87718934
