15
opt_min/./Product_10267_0_opt.xyz
  C  2.36636001 -0.06863104 -0.49273410
  C  1.28399264  0.02946252  0.54692965
  C  0.01813583  0.06589558  0.28165581
  C -1.26488574  0.13115570  0.01538682
  C -2.14740145 -1.08383107 -0.08644898
  H -1.81860936 -1.86116642  0.59960024
  H -3.17909896 -0.82086178  0.13484631
  H -2.10383701 -1.48432752 -1.09953682
  C -1.89097202  1.45102192 -0.15589466
  O -1.32092234  2.49089115 -0.36154699
  H -2.99613344  1.41738614 -0.06035356
  H  1.60562194  0.09426861  1.57850373
  H  2.38368533  0.83677781 -1.09691206
  H  2.18303731 -0.91328822 -1.15468521
  H  3.33543188 -0.19458510 -0.01849408
