16
opt_min/./Product_8934_0_opt.xyz
  C  2.69640200 -0.04267600 -0.47679600
  C  1.29183115 -0.42195932 -0.65552807
  C  0.34611332  0.47977042  0.01790107
  N -1.04575561  0.23210891 -0.31814367
  C -1.52529055 -1.12562647 -0.28261636
  H -1.91335930 -1.38227116  0.70803591
  H -2.31373288 -1.27231835 -1.01966640
  H -0.69371808 -1.78599475 -0.52737858
  C -1.82554976  1.26743589 -0.65700910
  O -1.47706165  2.42689570 -0.68847188
  H -2.85424110  0.94871138 -0.91122514
  H  0.49049938  0.34326207  1.10227597
  H  0.52825069  1.54526372 -0.18564802
  H  3.33410884 -0.91694418 -0.35857704
  H  2.91816619  0.70802262  0.28945265
  H  2.94528909  0.37499288 -1.46274216
