8
opt_min/./Product_1037_0_opt.xyz
  C  2.36375835  1.19130416 -0.30595092
  N  1.81590891  1.99288417  4.63209341
  N  15.59417783 -10.24656204 -12.17920188
  N  12.64476616 -3.89503969  3.75936606
  C  2.48501446  6.78248044  13.37688044
  N -6.23996273 -2.05913385  0.91009833
  H -7.78904543  8.53102775  1.18489724
  H  4.88565885  2.47654555  1.52428464
