15
opt_min/./Product_8435_0_opt.xyz
  C  2.81368000 -0.62647500 -0.70538800
  C  1.53977534 -0.46914062 -1.00782891
  C  0.40583536 -0.70192303 -0.06363316
  O -0.44033714  0.43068947 -0.09119779
  C -1.59503466  0.31812459  0.71520916
  H -1.67268207 -0.63872415  1.22081906
  C -2.80993860  1.08009211  0.30603329
  H -3.60148825  1.19221093 -0.39425829
  C -2.14719244  1.56051753  1.32681303
  H -2.03940422  2.34934971  2.03124641
  H -0.16647806 -1.59077915 -0.38490718
  H  0.77488462 -0.89025142  0.95523491
  H  1.23561549 -0.13822643 -1.99125023
  H  3.59575552 -0.45692409 -1.42459675
  H  3.12874644 -0.94828261  0.27388471
