11
opt_min/./Product_5961_0_opt.xyz
  C  0.17936500  0.63129400 -0.76793500
  H -0.21505263  1.57929950 -0.44488226
  H  0.62135805  0.63408251 -1.74957930
  C -0.55847569 -0.59851728 -0.28971689
  O -1.70131905 -0.45667975  0.47767244
  H -2.39300464 -0.03896057 -0.04598655
  H -0.57280058 -1.46382736 -0.95001441
  C  0.77073224 -0.23992336  0.31172871
  O  0.80171761  0.20999667  1.62569910
  H  1.66860031  0.57783819  1.81513210
  H  1.61087115 -0.86479117  0.02706302
