12
opt_min/./Product_3033_0_opt.xyz
  O -0.78292100 -0.53055100 -0.01891800
  C -0.05604861  0.70140203  0.03725044
  C  1.41840580  0.45656837 -0.01059870
  C  1.99313523 -0.72910916 -0.05459268
  H  3.06335893 -0.83520807 -0.08600017
  H  1.41640491 -1.63733457 -0.06289351
  H  2.00473977  1.36526647 -0.00318142
  H -0.36835298  1.33660722 -0.80172915
  H -0.32267183  1.23206177  0.96073780
  C -2.09529282 -0.42993605 -0.06605793
  O -2.74429653  0.57522891 -0.06501919
  H -2.53512330 -1.44308626 -0.10807308
