10
opt_min/./Product_3081_0_opt.xyz
  N -1.59555500  0.09540100  0.47773500
  C -0.17229492 -0.18360721  0.13697054
  C  0.39025854 -1.34748152 -0.35260315
  O  1.71641417 -0.94869543 -0.45100915
  C  1.82599383  0.31758216 -0.04009830
  H  2.77909179  0.80661592 -0.03936890
  N  0.71254679  0.85251567  0.34189892
  H -1.97344234 -0.68530370  1.01880446
  H -1.59432254  0.96079529  1.02645485
  H -2.15528509  0.22165151 -0.37146825
