16
opt_min/./Reactant_1889_0_opt.xyz
  C  0.46242500 -1.06654800  0.25952200
  H  0.22559914 -1.08780100  1.32815350
  H  0.97033374 -2.00143346  0.02590053
  C  1.34227875  0.14977733 -0.02018394
  H  2.24444025  0.13028750  0.59269448
  H  1.65445703  0.16283711 -1.06430154
  C  0.54899335  1.42214808  0.29759853
  H  0.33445245  1.44529712  1.37995604
  H  1.11474287  2.31645124  0.04027364
  O -0.65569545  1.50325847 -0.43147171
  C -1.49675541  0.40952414 -0.17101513
  H -1.77710569  0.38426635  0.89775864
  H -2.40482139  0.57022440 -0.75025831
  C -0.83606112 -0.92272259 -0.53836057
  H -1.51071045 -1.75449276 -0.35083633
  H -0.59156606 -0.91073632 -1.60089932
