15
opt_min/./Product_9107_0_opt.xyz
  C  1.59993500 -0.25768300  0.24243900
  C  0.45406273 -0.40806486 -0.82422759
  H  0.90020698 -0.65469973 -1.79299394
  O -0.42033272 -1.42993057 -0.44119975
  C -1.55003542 -0.84577280  0.18335717
  H -2.44656348 -1.20810743 -0.32149828
  H -1.58190778 -1.13763178  1.23710956
  C -1.33982971  0.67270504 -0.00047724
  H -2.20882676  1.18684864 -0.40873664
  H -1.03810193  1.15169318  0.93704438
  O -0.30983188  0.74563997 -0.96613726
  C  2.54445021  0.68376437 -0.34073921
  H  2.51381975  1.65508849  0.17904627
  H  2.04224539 -1.25227794  0.29280762
  H  1.12300640  0.00024449  1.19946322
