10
opt_min/./Product_959_0_opt.xyz
  O -0.11662000  1.13138600  0.83336400
  C -0.00050381  1.01496586 -0.75027527
  C  1.08506055 -0.07365561 -0.35343086
  H  1.26567140 -0.92794952 -1.00023061
  H  1.98582962  0.29597805  0.12705921
  N -0.02722591 -0.24070106  0.58371592
  H -0.05078131 -0.87515730  1.40717303
  C -1.01153534 -0.18283775 -0.49913630
  H -2.00268064  0.08941648 -0.14968445
  H -1.01386379 -1.04620162 -1.15877121
