14
opt_min/./Product_7753_0_opt.xyz
  C -2.22385600 -0.40046300  0.15501800
  C -0.81326086  0.01218963 -0.08102233
  C  0.35811773 -0.65649073  0.38979884
  H  0.40184890 -1.54867249  0.97967090
  C  1.41475611  0.06815100 -0.07274968
  N  2.77999023 -0.14194028  0.00591748
  H  3.07551977 -0.63668061  0.83441518
  H  3.32072310  0.69169062 -0.17712342
  O  0.99322413  1.13207640 -0.78431994
  C -0.36873184  1.08250185 -0.78518430
  H -0.87998369  1.86006520 -1.31755017
  H -2.90402433  0.38789866 -0.16021037
  H -2.45528104 -1.30415453 -0.40931979
  H -2.38653174 -0.60901990  1.21212840
