17
opt_min/./Reactant_8925_0_opt.xyz
  C -2.45936200  0.41654600  0.80295000
  O -1.25073759 -0.29473148  0.74398271
  C -0.49286454 -0.00889127 -0.40387495
  C  0.83312123 -0.76832991 -0.29630490
  O  1.52318662 -0.78531585 -1.52651722
  H  1.54517201  0.11533566 -1.87234020
  C  1.70719461 -0.15367902  0.81717219
  O  2.18007199  1.12546324  0.46318269
  H  2.81648462  1.01675859 -0.25367230
  H  1.09485743 -0.02689802  1.70861932
  H  2.54048927 -0.83038832  1.03340230
  H  0.62264487 -1.81270393 -0.05144614
  H -0.28368973  1.07324079 -0.47218470
  H -1.02925617 -0.32073557 -1.31395204
  H -3.11169870  0.18764272 -0.04603543
  H -2.28668947  1.49946027  0.83548997
  H -2.94253561  0.10440725  1.72653235
