17
opt_min/./Product_9562_0_opt.xyz
  C  1.70542100 -0.53998100  0.19533000
  H  1.79044372 -1.44163373 -0.39273899
  H  2.07354636 -0.62842744  1.20533852
  C  1.77664557  0.77395429 -0.47618399
  H  2.17911344  1.59854170  0.09436742
  H  1.98274794  0.83158449 -1.53384952
  C  0.42039211  0.26212436 -0.03957547
  C -0.62335856 -0.25682393 -1.02659026
  H -0.26162705 -1.04945880 -1.67958806
  H -0.95911099  0.57741636 -1.65157717
  C -1.74847592 -0.68001712 -0.08552710
  H -2.73146908 -0.69938439 -0.55543245
  H -1.53639448 -1.67055298  0.32342702
  C -1.63005582  0.35405796  1.05032428
  H -2.05118383  0.03227174  2.00349047
  H -2.13403431  1.28828042  0.77584286
  C -0.19829702  0.74395637  1.17484527
