14
opt_min/./Product_11722_0_opt.xyz
  C -0.71042600  1.50671400  0.05771600
  C -0.47239293  0.02834132 -0.19468735
  C -1.47075701 -0.90731779  0.33815971
  O -1.39116633 -2.11031630  0.31875132
  H -2.35919816 -0.40606785  0.78230492
  C  0.32367496 -0.41649550 -1.41903767
  H  0.26729544 -0.50817320 -2.47153273
  C  0.95400323 -0.51048413 -0.28768279
  N  2.01063391 -0.77951955  0.49315951
  H  1.93394062 -0.58206159  1.47713592
  H  2.92957474 -0.71184634  0.08594663
  H -0.23635737  2.10492843 -0.71824007
  H -0.30880343  1.81551923  1.02282657
  H -1.77681633  1.72503325  0.04648128
