18
opt_min/./Product_5211_0_opt.xyz
  C  2.98037400  0.52717800 -0.08935400
  C  1.51637615  0.57667191 -0.23544047
  C  0.84333912 -0.72868190 -0.12111222
  C -0.56780147 -0.73467278 -0.72392003
  C -1.48243279  0.27689842 -0.03888213
  C -2.85839835  0.35050058 -0.69454493
  H -3.59829991  0.72640103  0.00641871
  H -2.84366811  1.00565446 -1.56046366
  H -3.17571655 -0.63545481 -1.02768092
  H -1.58207038  0.01285548  1.01524866
  H -0.99456915  1.25141986 -0.08509788
  H -0.99204041 -1.73794189 -0.62282990
  H -0.50072210 -0.50454951 -1.78740614
  H  1.43074840 -1.57809002 -0.50118917
  H  0.74486834 -0.87533269  0.96161052
  H  3.46134466 -0.43528817 -0.30607409
  H  3.45687770  1.33128191 -0.64553463
  H  3.14436989  0.74424852  0.96955377
