9
opt_min/./Product_1989_0_opt.xyz
  O -2.03112200 -0.86402100  0.08655300
  C -0.78680128 -0.24977928  0.07665921
  C -1.67110241  0.60585153 -0.27671286
  H -2.37855816  1.38242937 -0.29862280
  C  0.55990741 -0.78335763  0.26587832
  O  1.50986475  0.23630254  0.07154065
  H  2.38830354 -0.11661362  0.24980536
  H  0.70246629 -1.61657736 -0.44179356
  H  0.60524086 -1.19414395  1.28908332
