9
opt_min/./Reactant_1989_0_opt.xyz
  O  0.42217900  1.85522100  0.77495500
  C  0.17738693  0.78347553  0.31597206
  C  0.97044847 -0.42726168 -0.13428855
  H  1.46335525 -0.95432537  0.68746573
  H  1.68025339 -0.27582791 -0.94853620
  O -0.24328123 -1.06743363 -0.54165350
  C -1.06461037  0.00338529 -0.06560070
  H -1.71336666  0.43942900 -0.82539003
  H -1.66084591 -0.29338265  0.80342534
