14
opt_min/./Product_10984_0_opt.xyz
  O  2.53031600  0.58626000 -0.95300900
  C  1.87874664 -0.11244871 -0.21800689
  C  0.44745943  0.03653235  0.05518223
  C -0.57919503  0.98278161 -0.59770095
  H -0.51830804  2.03240964 -0.32701023
  H -0.81598404  0.83586698 -1.65420276
  N -1.39550953  0.16369029  0.32507917
  H -2.40882140  0.22441106  0.43354025
  C -0.64948269 -1.03162445 -0.08288034
  H -0.67677463 -1.84798610  0.63797264
  H -0.86972932 -1.39283406 -1.09460469
  C -0.28800948  0.45908716  1.41054944
  H -0.30671621 -0.40173146  2.11860624
  H  2.33444111 -0.93891675  0.36422150
