14
opt_min/./Product_8893_0_opt.xyz
  O  3.29689929  0.40849964  0.28663942
  C  2.13988117  0.28616938  0.18060812
  C  0.88640741  0.06505663  0.00722516
  N -1.04402963 -0.50687503 -0.36495878
  C -2.42705883 -0.77842676 -0.15528239
  H -3.00385263 -0.00300098 -0.65711156
  H -2.72409869 -0.79982608  0.90902687
  H -2.67699980 -1.74335388 -0.59875072
  C  0.09823137 -1.23528837  0.13198255
  H  0.02128005 -1.59705075  1.17101837
  H  0.42390248 -2.05712838 -0.51389076
  C -0.41619973  0.78983887 -0.21507655
  H -0.47619776  1.42048407 -1.10877483
  H -0.73865222  1.37538009  0.66229453
