11
opt_min/./Product_5934_0_opt.xyz
  N  0.84410500 -0.99740800 -0.33125400
  H  0.82430568 -1.94853214 -0.63356193
  C  0.17445462  0.29842840 -0.49876810
  C -1.06487110  0.56190823  0.33551153
  O -2.24380654  0.09599349 -0.27782236
  H -2.21618877 -0.86498952 -0.34159753
  H -1.20278431  1.64237148  0.43777423
  H -0.93744074  0.12564388  1.33481949
  H  0.12458737  0.68841997 -1.51332798
  C  1.50560685  0.03938219  0.11853713
  O  2.48214717  0.44892752  0.65093909
