15
opt_min/./Product_8140_0_opt.xyz
  C  0.58574600 -1.16801600  0.38687500
  H  0.43292249 -1.11722247  1.46963854
  H  0.32058860 -2.16557123  0.03593852
  O  1.99982636 -1.02313056  0.12945022
  C  2.55969783  0.11098405 -0.14936268
  O  1.87223835  1.20437361 -0.18383865
  C  0.45721094  1.24266351  0.06076028
  H  0.07115069  2.07530784 -0.53009835
  H  0.29578222  1.45514579  1.12312582
  C -0.20816290 -0.07696223 -0.32905645
  C -1.68973826 -0.10424846  0.02237662
  H -1.83431644 -0.31653962  1.07720279
  H -2.15166555  0.85423850 -0.19855135
  H -2.20595280 -0.86834047 -0.54941017
  H -0.06964626 -0.21450039 -1.40833188
