12
opt_min/./Product_5298_0_opt.xyz
  O  1.99693600  0.76256900 -0.31257800
  C  0.74959102  0.32267576 -0.01868972
  C -0.37806954  1.01847308  0.02511481
  H -0.51718077  2.06622854 -0.15448412
  C -1.50538297  0.10216069  0.37751562
  H -2.02960010  0.40255303  1.29469523
  H -2.24807783  0.02956210 -0.43255395
  O -0.91351632 -1.17537787  0.58930887
  C  0.46845012 -1.11879845  0.30611056
  H  1.02977810 -1.46292922  1.18937477
  H  0.70627426 -1.78283418 -0.54130019
  H  2.62677672  0.03771561 -0.22640879
