15
opt_min/./Product_3956_0_opt.xyz
  C -1.41966600  1.00595600  0.24402500
  C -1.14006330 -0.29039429 -0.51420571
  C  0.01591212 -1.07459249  0.10359351
  N  1.26073859 -0.35366333 -0.01141584
  C  2.22252677 -0.44398494  0.88423471
  O  3.30835266  0.23109670  0.59336774
  H  3.30396060  0.69941346 -0.27373991
  H  1.39335948  0.15819619 -0.89754600
  H -0.16302293 -1.24388186  1.16752923
  H  0.10592968 -2.05242964 -0.38766306
  H -0.90945907 -0.07185961 -1.56073098
  H -2.02770182 -0.92518102 -0.50318790
  H -0.49126526  1.43331875  0.61870201
  H -1.89890072  1.73930559 -0.40213298
  H -2.07246247  0.82228770  1.09377382
