11
opt_min/./Product_11835_1_opt.xyz
  C -1.52433200 -0.17564100  0.05861700
  C -0.11469464  0.30500466 -0.05823900
  O  0.00241482  1.61874950 -0.41248927
  H  0.94417172  1.83078441 -0.44269567
  C  0.95470838 -0.45559168  0.16444910
  O  2.23262254  0.08976406  0.05992163
  H  2.87846524 -0.61895327  0.05682269
  H  0.87898746 -1.49075493  0.45236248
  H -2.00228093  0.28320946  0.92387100
  H -2.08036326  0.12661733 -0.82611599
  H -1.55697307 -1.25455053  0.16545416
