14
opt_min/./Product_6766_0_opt.xyz
  C -2.69098900  0.09150300  0.29297800
  N -1.27299277 -0.07107986  0.19610858
  C -0.60522267  0.67733974 -0.55779359
  O  0.71692897  0.60388610 -0.67036240
  C  1.33535857 -0.41045918  0.09618095
  C  2.81959877 -0.44374514 -0.14172596
  O  3.44524858  0.28245326 -0.84923871
  H  3.29700398 -1.24816806  0.45692108
  H  0.90049001 -1.38762440 -0.15783503
  H  1.14237015 -0.24599024  1.16544261
  H -0.99093539  1.49131762 -1.18776359
  H -3.09423073  0.82821019 -0.41340259
  H -2.93970426  0.40383974  1.30854335
  H -3.15600558 -0.87976064  0.11872172
