15
opt_min/./Product_9278_0_opt.xyz
  C -1.01840377  1.46654504  0.37557421
  C -0.62195282  0.05626029  0.84650812
  C -1.37064129 -1.02096307  0.05849186
  H -1.19893360 -0.90074933 -1.00974383
  H -2.44030700 -0.94870758  0.24366383
  H -1.03367258 -2.01222765  0.35720509
  C  0.87950225  0.02680427  0.76400978
  O  1.25728400 -0.73424791 -0.26035551
  C  2.51387311 -0.86821104 -0.56907658
  C  3.64078435 -1.02142611 -0.94704659
  H  4.62525813 -1.16582068 -1.27178280
  H -0.87385537 -0.01318686  1.91096817
  H -0.82602658  1.57858518 -0.68939964
  H -0.44467912  2.21781029  0.91415918
  H -2.07666766  1.63413224  0.56088437
