14
opt_min/./Product_10985_0_opt.xyz
  O  1.70988100 -0.49750700  0.02707700
  C  2.49135868  0.46167462  0.23247260
  H  2.27986814  1.03264215  1.17050359
  C  0.58119205 -0.82912567  0.88586252
  C -0.61581911 -0.04255134  0.48324628
  C -2.02490049 -0.43880093  0.28543334
  H -2.26306470 -1.49456139  0.25277621
  H -2.80572213  0.20234424  0.68286374
  N -1.23089818  0.03065453 -0.84070296
  C -0.77575454  1.25650777 -0.19102195
  H -1.52061414  1.95231262  0.18567803
  H  0.09014719  1.71874808 -0.64984176
  H  0.39364935 -1.89848639  0.75982111
  H  0.85647842 -0.61167012  1.92734591
