12
opt_min/./Product_7794_0_opt.xyz
  C -1.98738700 -0.47708000 -0.21220700
  C -0.66930428 -0.32013503 -0.11851464
  C  0.30084426 -1.38291875 -0.42775546
  N  1.48593322 -0.81014464 -0.21561810
  H  2.35500411 -1.31238870 -0.35241922
  C  1.50161849  0.52823524  0.20746522
  O  2.50280731  1.15106838  0.42625699
  C  0.05285607  0.93717172  0.30618711
  H -0.15510287  1.78425894 -0.34731061
  H -0.18997673  1.23103908  1.32779341
  H -2.67333047  0.32219142  0.01988381
  H -2.40360680 -1.41780115 -0.52675811
