9
opt_min/./Product_2875_0_opt.xyz
  C -1.46564372 -0.90663944 -1.15811438
  C -0.40814374  0.14311512 -1.06923694
  O  0.25746052 -0.02179038  0.07616583
  C  1.25316119  0.76034579  0.38544731
  C  2.18043974  1.44617595  0.71007139
  H  2.99209561  2.02811397  1.02361290
  H -1.55441608 -1.54334579 -0.27416252
  H -2.41428941 -0.41809080 -1.37499309
  H -1.22001795 -1.52049737 -2.02693742
