15
opt_min/./Product_11792_0_opt.xyz
  C -2.13087015 -0.75349086 -0.39529677
  N -1.08063968 -0.47972714  0.57477188
  C -0.02160993  0.29883008  0.13202944
  N -0.07409558  1.57796775 -0.39779703
  H -0.67123928  2.31501312 -0.70405289
  O  1.32193389  1.61753182 -0.50087999
  C  1.33416044  0.30031002  0.03130866
  C  2.55983434 -0.45365975  0.36718586
  H  3.39581365  0.02094887 -0.14051200
  H  2.48730835 -1.49027276  0.03899205
  H  2.75939099 -0.44997571  1.44160706
  H -0.73526904 -1.32761973  1.00951473
  H -1.80365196 -1.40037036 -1.21878678
  H -2.95931606 -1.23350683  0.12451759
  H -2.47684085  0.19140484 -0.80985025
