19
opt_min/./Product_10912_0_opt.xyz
  C  2.30935500 -0.30752300  0.35408300
  C  1.09766587  0.57887679  0.61531943
  C -0.23723700  0.09481329  0.06343554
  O -1.11980279  1.18851174  0.16932702
  C -2.29094251  1.17446865 -0.59862710
  H -2.92060203  0.29772655 -0.40620008
  H -2.84636984  2.06566431 -0.31327082
  H -2.08588693  1.22939904 -1.67413385
  C -0.69976677 -1.30754254  0.35902473
  H -0.04773003 -1.96016350  0.90852725
  H -1.74628231 -1.45622003  0.57040473
  C -0.31955539 -0.90447985 -1.04505719
  H -1.09359327 -0.83557460 -1.78968075
  H  0.60263147 -1.29181959 -1.44617781
  H  1.28111902  1.56767692  0.19158898
  H  0.96276538  0.71665235  1.69046312
  H  2.49489028 -0.41477394 -0.70987379
  H  3.18916874  0.15450989  0.79245343
  H  2.18938886 -1.29254680  0.79073525
