12
opt_min/./Product_9395_1_opt.xyz
  O -2.09345000  0.41695600  0.76672800
  C -0.97792188  0.21065926  0.36351118
  C -0.51030047 -1.21608325  0.12066990
  H -0.75664310 -1.81753572  1.00482565
  H -1.09538666 -1.62636690 -0.71432534
  O  0.86321373 -1.40512769 -0.17967284
  C  1.67125278 -0.33294047 -0.17970795
  H  2.69917852 -0.63813169 -0.30633422
  N  1.39142383  0.88066443 -0.06785415
  C  0.02263223  1.29724678  0.07672903
  H -0.02585429  2.05255144  0.87004816
  H -0.27913462  1.80872446 -0.84649009
