17
opt_min/./Product_6444_0_opt.xyz
  C -1.26663200  0.20824200  1.20873800
  C -0.29465810  0.00102804  0.07358082
  C -0.82368628 -0.60425228 -1.23588548
  H -1.77938540 -1.11551905 -1.12745527
  H -0.89532874  0.03101253 -2.11981380
  C  0.27154561 -1.63692352 -1.28305347
  C  0.79492316 -1.10498016  0.02355308
  H  1.05498407 -1.80865307  0.80715691
  C  1.84697371 -0.01297120 -0.31839872
  H  2.28970707 -0.13438910 -1.30482871
  H  2.64179814  0.04085058  0.41872039
  C  0.77627791  1.07392514 -0.18858418
  H  0.92827872  1.73889206  0.65660768
  H  0.61297171  1.67873502 -1.08026527
  H -1.75635681 -0.73381879  1.45487882
  H -0.75472629  0.56126459  2.10044389
  H -2.03292453  0.92764976  0.93125377
