10
opt_min/./Product_1967_0_opt.xyz
  O -1.85855300  0.06503700  0.77301700
  C -0.83413729 -0.60576998  0.11085998
  H -0.91434211 -1.68026363  0.24095462
  C -0.20879611 -0.04557900 -1.12316695
  H -0.33951725  0.17267692 -2.15517921
  C  0.52681969  0.03108899 -0.03606644
  C  1.77017022  0.46520564  0.55679140
  O  2.06596950  0.39160703  1.71975906
  H  2.48305705  0.88284890 -0.18652018
  H -2.41689363  0.54451376  0.15209789
