21
opt_min/./Product_11536_0_opt.xyz
  C -1.20260700  1.60104300 -0.43347900
  C -0.40288100  0.30656384 -0.59537259
  C  1.09204070  0.52596792 -0.32129699
  C  1.90916937 -0.66095243 -0.59808341
  C  3.12482511 -0.76613977  0.22225166
  H  2.86122540 -1.56059561  0.92956769
  H  3.40485489  0.11593555  0.81725353
  H  3.97221536 -1.13476814 -0.35131146
  H  1.25350131  1.01946413  0.65130974
  H  1.47702779  1.22020011 -1.08450150
  C -0.91170237 -0.80278861  0.33390963
  C -2.32038159 -1.25540784 -0.00727016
  H -2.37417586 -1.60873865 -1.03343811
  H -3.02445851 -0.43234137  0.10849568
  H -2.63556060 -2.05835041  0.65570409
  H -0.86475535 -0.46457995  1.37197469
  H -0.21084737 -1.63969267  0.23387014
  H -0.49217722 -0.05801334 -1.62317109
  H -2.07257888  1.59873611 -1.08476452
  H -1.54150043  1.70782781  0.59497376
  H -0.59853085  2.47004115 -0.68514489
