11
opt_min/./Product_6467_1_opt.xyz
  C -0.24704300  1.12922800  0.16795500
  C -1.26147499  0.04856810 -0.11879705
  O -0.75261074 -1.23178268  0.13079551
  H -0.68301850 -1.37910085  1.08319803
  H -2.18769341  0.25184759  0.42913300
  H -1.47905595  0.07192121 -1.19454927
  N  0.98800083  0.94007315  0.20091341
  C  1.76060661 -0.14106897 -0.08664386
  O  2.14643147 -0.44959256 -1.18018507
  H  2.15869571 -0.59646914  0.84541892
  H -0.62062640  2.12425539  0.39775548
