11
opt_min/./Product_4708_0_opt.xyz
  C  1.13520300 -0.42395100 -0.34292900
  C -0.18366128  0.35141218 -0.25453508
  O  0.04107518  1.52110784  0.49805388
  H -0.76394141  2.04759890  0.53040617
  C -1.21737004 -0.54709242  0.39517206
  O -1.76412402 -1.46722121 -0.14113396
  H -1.41680847 -0.28084254  1.45218059
  H -0.51975123  0.60005043 -1.27483437
  H  0.98654345 -1.34646186 -0.89535322
  H  1.88002803  0.18840456 -0.84235996
  H  1.48829391 -0.65160765  0.65940575
