9
opt_min/./Product_9784_1_opt.xyz
  C  0.29837300 -0.46527100  0.26358600
  C -0.64513023  0.60244846  0.71574637
  H -0.09708402  1.53420754  0.86669378
  H -1.42063421  0.78925628 -0.02436220
  H -1.11352823  0.33496220  1.65955062
  C  0.67431971 -0.66672245 -0.98399312
  H  1.37170358 -1.43791490 -1.26002080
  H  0.29449207 -0.06403731 -1.79474065
  H  0.69649438 -1.09222281  1.05245005
