12
opt_min/./Product_9784_0_opt.xyz
  C  1.44032600 -0.39572600  0.04107000
  C  0.55388618  0.81274806 -0.05161986
  C -0.77033003  0.79604302 -0.06957304
  C -1.64464886 -0.41004876  0.00202013
  H -2.33079703 -0.41967005 -0.84158104
  H -1.07145942 -1.33219660 -0.00907482
  H -2.24810053 -0.38389085  0.90812235
  H -1.30316668  1.73579207 -0.13935816
  H  1.06227842  1.76335719 -0.11885737
  H  2.46317932 -0.10102818  0.24629153
  H  1.11141731 -1.05968997  0.83635616
  H  1.43259356 -0.94554374 -0.89877463
