13
opt_min/./Product_2454_0_opt.xyz
  N  2.34393500 -0.64466100  0.44291000
  C  1.20944372 -0.35695492 -0.01226198
  C -0.08796250 -0.87418699 -0.45647836
  C -1.18984045 -0.29307450  0.38411069
  C -2.15843076  0.47036851 -0.08076062
  H -2.23020740  0.73334179 -1.12387469
  H -2.92778864  0.86072138  0.56323266
  H -1.13014578 -0.54543925  1.43506205
  H -0.23804133 -0.59398749 -1.50406185
  H -0.07244025 -1.96581282 -0.37133068
  C  2.03273125  0.81455202  0.22130746
  H  1.87959220  1.42658466  1.10053872
  H  2.53384913  1.30371177 -0.60358936
