8
opt_min/./Product_1970_0_opt.xyz
  C  0.97058800 -0.21722200 -0.48765400
  O  2.20647893 -0.28534365 -0.12373671
  H  2.35111453 -0.18498234  0.84199906
  O  0.19281238  0.02692299  0.58411556
  C -1.19532857  0.10711050  0.34037843
  H -1.63804500  0.58820981  1.21201062
  H -1.61628472 -0.89364221  0.21385223
  H -1.39301601  0.69080191 -0.55993416
