16
opt_min/./Product_3905_0_opt.xyz
  C  1.93769100 -0.57607100  0.53828700
  C  1.27306157  0.66692597 -0.03790307
  C -0.23482975  0.60947589 -0.20045971
  C -0.96160568 -0.50282267  0.10057767
  C -2.42825858 -0.59864678 -0.07208961
  H -2.66509681 -1.18587272 -0.96044659
  H -2.87212240 -1.10963219  0.78185433
  H -2.84810751  0.39741288 -0.19255846
  H -0.46694002 -1.41512375  0.40734902
  C -0.95032824  1.74047469 -0.65522065
  H -0.31387845  2.39806376 -1.26984292
  H  1.70494844  0.88562944 -1.02051198
  H  1.50271056  1.52304912  0.60562852
  H  3.00971656 -0.40835325  0.62504391
  H  1.55011077 -0.80259606  1.52934658
  H  1.78356593 -1.43765318 -0.10827354
