15
opt_min/./Product_10999_0_opt.xyz
  C -1.50940000  0.28204500  0.66214600
  C -1.05477893 -0.87796380 -0.20734749
  C  0.25289581 -0.65936132 -0.93406046
  H  0.64878058 -1.55939202 -1.40543889
  O  0.42461801  0.48284927 -1.70540614
  C  1.28389449  0.35832301 -0.60327086
  C  1.16312679  1.28100846  0.53742912
  O  2.19391026  1.31258875  1.29541671
  H  2.96424823  0.74053801  1.04838938
  H  2.31937843  0.07508695 -0.87206957
  H -0.95886974 -1.79118324  0.38496858
  H -1.80817345 -1.06896818 -0.97516826
  H -0.81815306  0.44427241  1.48579833
  H -2.49390201  0.07767819  1.07449135
  H -1.55876073  1.19343795  0.07755140
