11
opt_min/./Product_1467_0_opt.xyz
  C  2.28883683  0.45611885  0.18683038
  C -11.67402905 -18.34497580  18.29146833
  O  4.49117122  20.73575049 -4.14519398
  C  7.95681541  3.18651122 -1.86301309
  C -6.25054307 -9.78637967 -13.00843406
  N -16.14523396  2.92570903 -8.24895270
  H  7.84245055  2.75383127  4.60715822
  H -13.10234736  21.16263771  10.74185624
  H  32.72603628  40.09705970 -40.00363754
  H  12.13399616  5.81489133 -28.04975928
  H -1.55317046 -26.96334534  27.32747407
