13
opt_min/./Reactant_1023_0_opt.xyz
  C -1.40517400 -0.43282200 -0.16313500
  H -1.94199638 -0.91080149  0.64926058
  H -2.00977237 -0.32054343 -1.05848031
  C -0.53251501  0.76498652  0.18532790
  H -0.85747004  1.77131660  0.43178120
  C  0.57352008 -0.10144007  0.81883853
  H  0.71037000 -0.42589085  1.85071495
  C  1.58670690  0.57084656 -0.08416312
  H  1.88318327  1.58958414  0.15333333
  H  2.42643951 -0.03140840 -0.42535229
  N  0.39565110  0.48421529 -0.98451135
  C  0.03194904 -0.87080907 -0.40252046
  H  0.38743348 -1.79641849 -0.84545764
