11
opt_min/./Product_4046_0_opt.xyz
  O -1.53862200  1.60488600  0.69732200
  C -1.11397290  0.38218488  0.43090598
  C -1.08024152 -0.89546134  0.68044086
  H -1.36281537 -1.73868390  1.25707646
  C -0.20795333 -0.39652948 -0.45754510
  C  1.26401374 -0.28393772 -0.30190615
  N  1.77844604  0.81425770  0.02636482
  H  2.79275109  0.81977186  0.11823174
  H  1.82337468 -1.21019059 -0.50046794
  H -0.50058264 -0.63312484 -1.48356188
  H -1.00316107  2.24771680  0.21118706
