16
opt_min/./Product_8091_0_opt.xyz
  C  2.42377800  0.07420800 -0.73466100
  C  1.16922110  0.43040189 -0.00143119
  N  1.06733288  1.54027858  0.57341446
  H  0.18677050  1.73863900  1.03778373
  O  0.24639600 -0.56266221 -0.09574940
  C -0.95740926 -0.47842707  0.64943896
  C -1.91384574 -1.54131717  0.55233047
  H -1.66872891 -2.18824876 -0.30375284
  C -2.11962386  0.25920023 -0.10725652
  H -1.67096865  0.82635300 -0.92076360
  H -2.68358305  0.88622349  0.57260884
  H -2.81535686 -0.46769056 -0.56388408
  H -0.77429399 -0.04345995  1.63328402
  H  2.23269725  0.11314037 -1.80591511
  H  2.72632004 -0.93681009 -0.47698962
  H  3.20166140  0.78620636 -0.48591377
