10
opt_min/./Product_6112_0_opt.xyz
  C -0.91044110 -0.48268430 -0.28411129
  C -3.39510595 -4.50542999  1.92653322
  N  18.08484329  4.89625877 -8.25306933
  C  17.76606480  5.72606182 -20.79629605
  H  4.36378244 -3.09134739 -14.94494888
  H -20.32402589 -5.64877772 -0.03707015
  O -12.14193284 -2.65799344  7.30737156
  H  21.49863301  37.87272557 -12.12485665
  H -28.85552521  26.24026848 -13.06631288
  H  4.84553737  4.79847006 -13.96555609
