10
opt_min/./Reactant_9369_0_opt.xyz
  C  1.54790300  0.42433800 -2.01669500
  C  0.85098655  0.22027086 -1.06139667
  C  0.00978891 -0.01471625  0.03743025
  C  0.32391873 -0.50751505  1.28012471
  H  1.26021612 -0.82068079  1.69135588
  O -0.77257071 -0.57504872  2.03492621
  N -1.83347057 -0.13171603  1.31584538
  C -1.39695912  0.20173578  0.14166074
  H -2.06651808  0.58369163 -0.60352671
  H  2.16524188  0.60742765 -2.84456964
