15
opt_min/./Product_8781_0_opt.xyz
  O  0.94276500 -1.67009700  0.00828900
  C  1.78315922 -0.62466602 -0.09165059
  C  2.94147410 -0.27157582 -0.58323487
  H  3.30088045  0.73125262 -0.44601238
  H  3.55180802 -0.96502337 -1.13143224
  C  0.54588044 -0.41744601  0.61280206
  C -0.60655568  0.30886898 -0.00704712
  H -0.32106910  1.01424919 -0.77895827
  C -1.90501445 -0.42492128 -0.20798308
  H -2.46626110 -0.22135532 -1.10730514
  H -1.95722624 -1.45460933  0.11024397
  C -1.80191515  0.64377182  0.83204851
  H -1.78608272  0.33841635  1.86830493
  H -2.30286886  1.58468473  0.66511099
  H  0.55135397 -0.45148333  1.70035642
