19
opt_min/./Product_6579_0_opt.xyz
  C  1.99452200  0.16277400 -0.57761400
  C  0.86705554 -0.47085078  0.24098098
  O  1.05926716 -0.26330519  1.62871242
  H  1.95819133 -0.52281497  1.85593417
  C -0.49641913  0.09604289 -0.12751054
  C -1.19876770 -0.50900793 -1.30940173
  H -1.78719844  0.14478324 -1.93495234
  C -0.65751915  1.57697494  0.12973678
  H -0.34941461  1.80552766  1.14735080
  H -0.05157066  2.16089074 -0.56091388
  H -1.69672650  1.86925511  0.00435720
  C -1.68715290 -0.79463234  0.08047000
  H -2.60964666 -0.34074617  0.40809332
  H -1.52589515 -1.78106005  0.48580029
  H -0.70763333 -1.30423662 -1.85022563
  H  0.85524143 -1.55564912  0.03502818
  H  1.75739949  0.11077587 -1.63636872
  H  2.12432673  1.20348563 -0.29270143
  H  2.93140396 -0.36445344 -0.40336529
