10
opt_min/./Product_444_0_opt.xyz
  O  2.18688700 -0.38124100  0.02075300
  C  0.82812406 -0.26663673  0.08251988
  C -0.11382124 -1.26222889  0.14122994
  N -1.36538889 -0.46750402  0.18403587
  H -1.98695569 -0.71303471 -0.59208042
  H -1.88616831 -0.68025358  1.04050710
  N -1.09079990  0.96195231  0.14328275
  C  0.19898290  1.02582688  0.08973104
  H  0.69429185  1.97698552  0.05162274
  H  2.40041726 -1.31959557  0.01196844
