11
opt_min/./Product_5393_0_opt.xyz
  N  1.79966000 -0.24775800 -0.01324000
  C  0.44738463  0.13032643  0.04284880
  C -0.19799602  1.30493106  0.33247583
  H  0.28154803  2.23151656  0.58497567
  C -1.61308141  1.11071315  0.26120219
  N -1.72112484 -0.17045211 -0.06921911
  H -2.56421182 -0.70095361 -0.22239028
  N -0.49831512 -0.81244668 -0.20622281
  H -0.35605612 -1.77652970 -0.46106860
  H  2.34733106  0.32395293  0.62132702
  H  2.18950800 -0.16442994 -0.94589812
