13
opt_min/./Product_5541_0_opt.xyz
  O  1.97824400  1.58884500  0.60913400
  C  1.20792420  0.89726074 -0.21663213
  C  0.67836044 -0.31386636  0.49058653
  C -0.62203383 -0.82316342 -0.09285362
  H -0.83137079 -1.86813357  0.11479855
  C -1.77262605  0.10153823 -0.20087972
  H -1.63090970  1.13119270  0.10878329
  H -2.77804374 -0.27273065 -0.06352180
  N -1.09713072 -0.38634728 -1.38224671
  H -0.47658278  0.29724411 -1.80758557
  H  0.59709183 -0.17487714  1.57571594
  H  1.46878467 -1.05887648  0.32320998
  H  2.37044730  2.35355690  0.15848482
