9
opt_min/./Product_5107_0_opt.xyz
  O  2.12136700 -0.58723100 -0.78665000
  C  0.91080966 -0.20142777 -0.35171140
  C  0.62878619  0.92958744  0.51284876
  N -0.68326047  0.83569974  0.60176731
  H -1.30233330  1.44057396  1.11807306
  N -1.18040644 -0.24201838 -0.12319069
  H -2.14302211 -0.51270250 -0.22906580
  N -0.17389612 -0.86023288 -0.70673415
  H  2.77752937  0.01100266 -0.40924489
