10
opt_min/./Product_5277_0_opt.xyz
  C  0.65996100 -1.01223600 -0.06257900
  H  1.20441086 -1.93418498 -0.10623708
  C -0.61607784 -0.85400139 -0.00606218
  C -1.48620641  0.26463612  0.06702815
  H -2.11480355  0.41987756 -0.82109622
  H -2.11228189  0.31619207  0.96417082
  N -0.46158694  1.36111274  0.17589447
  N  0.74151224  1.29367119  0.00544760
  C  1.47215942  0.26154645 -0.12637364
  H  2.52733634  0.27422907 -0.29604978
