13
opt_min/./Reactant_4818_0_opt.xyz
  C  1.11350198 -0.50433001 -1.38183201
  O  0.90364463  0.15443788 -0.16315507
  C -0.44959124  0.26558805  0.24944314
  C -0.62786374 -0.34387243  1.65077085
  H  0.22836874 -0.07331374  2.25908191
  H -0.68104080 -1.42675791  1.59095688
  H -1.53152360  0.03390774  2.11582293
  C -0.83393342  1.66879486  0.27755623
  N -1.14301502  2.76872678  0.29287322
  H -1.12106140 -0.23381392 -0.46677051
  H  0.64519817  0.02376824 -2.22006105
  H  2.19017490 -0.51584017 -1.52933800
  H  0.74601145 -1.53447780 -1.35646795
