13
opt_min/./Product_10415_0_opt.xyz
  C  2.25343200  0.03177200  0.36109500
  C  0.79945000 -0.22355802  0.15920474
  C  0.16995442 -1.42380709  0.08749634
  N -1.28835443 -0.98983112 -0.14973389
  H -1.90161520 -1.35420752  0.58080490
  H -1.60618877 -1.37438152 -1.04097618
  C -1.21036383  0.50496797 -0.15990492
  O -2.36642231  1.15958072 -0.34004893
  H -2.18177534  2.10627488 -0.32852571
  N -0.03939384  0.91699220  0.01111501
  H  2.39416539  0.88079486  1.02638985
  H  2.72066562 -0.85102552  0.78784473
  H  2.74146930  0.25977831 -0.58687313
