8
opt_min/./Product_5766_0_opt.xyz
  O  0.65675700 -1.32546200 -0.22922600
  C  1.08748987 -0.05994922 -0.01520202
  H  2.12576914  0.15643385 -0.12764024
  C  0.02614767  0.69984616  0.31722800
  H -0.05293544  1.73514490  0.55898047
  N -1.04612815 -0.16705576  0.29068745
  H -1.99708046  0.08537199  0.49356953
  C -0.65731770 -1.41364031 -0.04575530
