13
opt_min/./Product_690_0_opt.xyz
  C -1.88087700 -0.15751200 -0.05057500
  C -0.40431123  0.00793331 -0.00232778
  C  0.57154947 -0.88214224 -0.26491261
  H  0.45395905 -1.90585553 -0.56272004
  C  1.88305572 -0.19157800 -0.06597018
  H  2.51417914 -0.66047483  0.68841337
  H  2.46445356 -0.13847897 -0.98940547
  N  1.55717113  1.14963056  0.33848377
  C  0.28324807  1.23855303  0.36167794
  H -0.21597850  2.15205999  0.62883981
  H -2.30965871  0.01347172  0.93588529
  H -2.14001490 -1.16099490 -0.37321793
  H -2.31967656  0.56584026 -0.73462715
