17
opt_min/./Product_9530_0_opt.xyz
  C  0.64094333  1.67208061  0.10723901
  C  0.51403716  0.25321070 -0.46059701
  C  0.97104462 -0.74697287  0.55907142
  C  1.99623916 -1.56101761  0.40001097
  H  2.29232543 -2.26181748  1.16220135
  H  2.58578994 -1.56474907 -0.50291997
  H  0.38960690 -0.76379965  1.47175143
  C -0.92645882 -0.01845888 -0.84508789
  C -1.88647755 -0.20441897  0.00572684
  C -2.81023406 -0.38591131  0.89585858
  H -3.37581941  0.44225902  1.29207878
  H -3.06981996 -1.37477097  1.23756404
  H -1.14973933 -0.04016433 -1.90445110
  H  1.14053104  0.16842316 -1.35260315
  H  0.44952364  2.41547286 -0.66513258
  H -0.07975938  1.81786740  0.91098039
  H  1.64245559  1.83077879  0.50516280
