16
opt_min/./Product_5569_0_opt.xyz
  C  1.44174400 -0.59265200  0.72634500
  C  0.93079713  0.29716880 -0.40108611
  C -0.56219121  0.63507191 -0.27337391
  C -1.49750488 -0.59113410 -0.39333893
  O -1.60445065 -1.38017741  0.76964972
  H -2.03894562 -0.86931923  1.45943680
  H -1.11607074 -1.25788640 -1.16725027
  H -2.49368380 -0.23968018 -0.70286272
  C -1.11076916  1.79895974 -0.94365029
  H -0.30631735  2.50537526 -1.21738426
  H -0.72410889  1.05505841  0.74342133
  H  1.49889802  1.23456638 -0.40589129
  H  1.09947164 -0.19003335 -1.36399759
  H  2.47302495 -0.88404820  0.53865834
  H  0.84442405 -1.49761376  0.80478150
  H  1.40093103 -0.07096524  1.68021161
