13
opt_min/./Product_3342_0_opt.xyz
  C  1.52800100 -0.32292000 -0.05248400
  H  2.08335759  0.04875873 -0.91188988
  H  2.26986532 -0.80212589  0.60073907
  C  0.62584277 -1.45150443 -0.37828253
  C -0.63254374 -1.10098194  0.21864888
  H -1.31630958 -1.84313359  0.60645008
  N -0.63340719  0.25557249  0.82891571
  C  0.72747570  0.74746149  0.74413196
  H  0.75417664  1.72378904  0.25411455
  H  1.10359607  0.85914783  1.76350964
  C -1.24681535  0.10326221 -0.43924992
  H -2.32820626  0.12871257 -0.45521221
  H -0.76432345  0.51244046 -1.32482302
