15
opt_min/./Product_1344_0_opt.xyz
  C -1.31112200  0.75663100  0.07427400
  H -1.95926235  1.32379568 -0.59676433
  H -1.70012303  0.90271560  1.09144251
  C -1.24627018 -0.73248858 -0.28272537
  H -1.96952258 -1.33777994  0.25717610
  H -1.40768209 -0.87161103 -1.35095486
  C  0.19202466 -1.11417704  0.08140553
  H  0.25121938 -1.46717285  1.11512485
  H  0.61516964 -1.86873581 -0.58081545
  N  0.94609139  0.13257227 -0.01984480
  C  2.26334472  0.10093199 -0.03739396
  H  2.81039943  1.01766983 -0.10644516
  H  2.76245862 -0.84425868 -0.05240477
  C  0.12074152  1.16329684 -0.04948289
  H  0.47519480  2.17348177 -0.04854233
