12
opt_min/./Product_7883_0_opt.xyz
  O -0.20565000  2.26986200  0.03374100
  C -0.31572308  1.08667892  0.10915494
  C  0.54219725 -0.06940286  0.61061551
  C  1.68231585 -0.30539794 -0.34816592
  C  2.96298832 -0.42607545 -0.28511143
  H  1.37716954 -0.39740533 -1.39385297
  H  0.93564908 -0.00614266  1.63001562
  N -0.62349552 -0.92758833  0.47780479
  H -0.51535319 -1.85261661  0.08349834
  C -1.38602756  0.07815266 -0.26118068
  H -2.38376285  0.26053353  0.14522800
  H -1.46641571 -0.06607357 -1.34593517
