15
opt_min/./Product_11300_0_opt.xyz
  O -1.05566800 -0.19036400  0.71896800
  C -0.89968345  0.91581658 -0.13717394
  H -1.22194581  0.66048169 -1.15748334
  H -1.57049890  1.67878341  0.27105493
  C  0.53216271  1.44316545 -0.16551852
  H  0.56206731  2.40027020 -0.69393084
  H  0.90771039  1.57535498  0.85950816
  O  1.40048567  0.61033865 -0.89875234
  C  1.80878913 -0.59585561 -0.27176681
  H  2.62577418 -0.95478768 -0.90779872
  H  2.24069997 -0.39742715  0.73603589
  C  0.89730017 -1.67924499  0.07497086
  C -0.52898286 -1.42782092  0.27295847
  H -0.89027756 -1.67705896 -0.75011240
  H -0.97067002 -2.16025352  0.95895242
