11
opt_min/./Product_3641_0_opt.xyz
  O -2.24862200  0.65735900 -0.85788800
  C -1.53608545  0.91117904  0.06781949
  C -0.49665428 -0.03501965  0.63430505
  C  0.45018042 -0.49202586 -0.46174335
  H  0.03697635 -1.22439432 -1.14318980
  N  1.38058206  0.52552185 -1.06545157
  C  1.88612069 -0.35217466 -0.32779250
  H  2.78830118 -0.71586763  0.10325359
  H  0.05487292  0.44335637  1.44431297
  H -1.02445151 -0.90769261  1.02531554
  H -1.59100595  1.88721241  0.58785424
