15
opt_min/./Product_6518_0_opt.xyz
  C -1.14727568  1.34692145 -0.02023622
  C -0.85884248 -0.09010065  0.37476805
  H -1.03745253 -0.23928602  1.44176176
  C -1.45166514 -1.19292778 -0.51791922
  H -2.01548451 -1.97572436 -0.00494712
  H -2.01176591 -0.83997130 -1.38730182
  O -0.14444092 -1.64604851 -0.88590962
  C  0.45884576 -0.66175081 -0.10502971
  C  1.71040989 -0.38056016  0.06899984
  C  2.96868729 -0.12022609  0.24599952
  H  3.49322724  0.59937487 -0.36506725
  H  3.54420532 -0.59033859  1.02979133
  H -2.18023525  1.60187637  0.20865088
  H -0.49028242  2.01906786  0.52700437
  H -0.97771336  1.49161286 -1.08497738
