16
opt_min/./Reactant_1928_0_opt.xyz
  C  1.91789600 -0.37172900  0.67227500
  C  1.10158805  0.40231717 -0.36683792
  C -0.24895359 -0.26780927 -0.59964947
  H -0.09521177 -1.27956480 -0.99190412
  C -1.25978281 -0.16678791  0.55898998
  H -1.69474159 -1.11202993  0.85930910
  H -0.89559723  0.36781217  1.43096399
  C -2.08530228  0.66229908 -0.42039539
  H -2.20985306  1.72023517 -0.17671066
  H -3.05865343  0.24950800 -0.70045453
  O -1.11943109  0.48174348 -1.45754517
  H  1.63342946  0.44422402 -1.31545694
  H  0.91969437  1.42473620 -0.03738407
  H  1.68437170 -0.04533365  1.68010672
  H  1.68424438 -1.43198281  0.60569978
  H  2.98052284 -0.24259812  0.50105005
