11
opt_min/./Product_2413_0_opt.xyz
  C -1.57776800 -0.12866500  0.27051000
  H -2.36855922 -0.75304033 -0.11562725
  H -1.84578737  0.91480916  0.33086819
  C -0.16253931 -0.52822766 -0.01953419
  C  0.88208489  0.56792971 -0.18175662
  O  2.20294274  0.12593111 -0.10669909
  H  2.33363079 -0.61782091 -0.70654825
  H  0.77537330  1.30355678  0.62104214
  H  0.68668954  1.08345894 -1.13902063
  H  0.01347964 -1.40489923 -0.62580502
  C -0.73237706 -0.68303373  1.34527965
