10
opt_min/./Product_3501_1_opt.xyz
  O  1.97670566 -0.53037490 -0.35358931
  C  0.74510603 -0.07741433 -0.16590641
  C  0.17148189  1.13726752 -0.01586070
  H  0.54100788  2.14525825  0.01060270
  C -1.15949872  0.54770579  0.10891026
  O -2.27421822  0.95346663  0.26766682
  C -0.53707360 -0.86946004 -0.06254094
  H -0.62430047 -1.53614283  0.79225119
  H -0.83726189 -1.39822712 -0.96559063
  H  2.60884353  0.20076680 -0.40020468
