45

 Si     0.093480   -0.182797    1.705349
 O      0.479100   -1.079309    0.410909
 C      1.705159   -1.678695    0.124495
 C      2.699209   -0.595181   -0.164709
 H      2.034667   -2.256017    0.992874
 C      2.347659    0.421243   -1.039621
 C      3.937778   -0.568571    0.456248
 C      3.219824    1.464371   -1.288983
 H      1.376421    0.399382   -1.508924
 C      4.820654    0.472286    0.204562
 H      4.215753   -1.358059    1.146358
 C      4.462494    1.490190   -0.665776
 H      2.935794    2.257256   -1.974362
 H      5.789625    0.487872    0.695239
 H      5.152675    2.306156   -0.861381
 C      1.495054   -2.611780   -1.042772
 C      0.589451   -3.722949   -0.698647
 H      2.452864   -3.038207   -1.365064
 H      1.079564   -2.049263   -1.880465
 C     -0.136064   -4.630130   -0.391366
 H     -0.751562   -5.458530   -0.131399
 Cl     1.247563    1.205328    2.605365
 Cl     0.238332   -1.630359    3.142368
 O     -0.268034    1.059370    0.407726
 O     -1.624906   -0.219661    1.769944
 C     -2.427582    1.667864    0.199585
 C     -2.592733    0.286273   -0.236796
 C     -2.104130   -1.943508    0.349793
 C     -0.833871    3.203375    0.986428
 C     -1.804946    4.185300    1.086941
 C     -3.423866    2.612749    0.275683
 C     -3.108675    3.889321    0.730306
 C     -3.148862   -0.120628   -1.424021
 C     -3.171671   -1.479914   -1.727372
 C     -2.643359   -2.397106   -0.838498
 H     -4.434169    2.338628   -0.003964
 H     -3.886191    4.644190    0.807057
 H     -3.539603    0.622573   -2.108537
 H     -3.600472   -1.813211   -2.668812
 H     -2.635771   -3.460984   -1.045544
 H     -1.656823   -2.551555    1.122049
 N     -1.166949    1.986784    0.556203
 N     -2.105258   -0.639784    0.606852
 H      0.210897    3.317180    1.237418
 H     -1.518516    5.168508    1.447259
