45

 Si     1.150196   -1.852371    0.584382
 O     -0.256686   -1.514619   -0.116385
 C     -1.603224   -1.815341   -0.029497
 C     -2.344856   -0.518631   -0.188821
 H     -1.827679   -2.263932    0.942372
 C     -1.872259    0.397165   -1.116659
 C     -3.472223   -0.216138    0.559172
 C     -2.512718    1.610513   -1.295505
 H     -0.990357    0.149568   -1.688873
 C     -4.121271    0.999049    0.381811
 H     -3.848160   -0.929501    1.285767
 C     -3.642545    1.914326   -0.543502
 H     -2.136868    2.319501   -2.027538
 H     -5.005013    1.229329    0.970831
 H     -4.152232    2.863730   -0.683535
 C     -1.960994   -2.796108   -1.123596
 C     -1.214539   -4.056303   -0.985628
 H     -3.035646   -3.013903   -1.102822
 H     -1.725343   -2.346889   -2.090197
 C     -0.596833   -5.077216   -0.855280
 H     -0.055101   -5.985826   -0.741116
 Cl     0.482259   -2.922478    2.198666
 Cl     2.590307   -3.116329   -0.041276
 O      1.684038   -0.672520   -0.730217
 O      1.631501   -0.533402    1.579359
 C      2.569944    1.274403   -0.016361
 C      1.260929    1.491096    0.591059
 C     -0.321991    0.545564    2.058242
 C      3.884385   -0.269085   -1.201412
 C      4.969950    0.588083   -1.153312
 C      3.620297    2.162239    0.047864
 C      4.837795    1.814533   -0.526053
 C      0.482429    2.614194    0.444951
 C     -0.726166    2.695512    1.128402
 C     -1.129221    1.657593    1.947418
 H      3.481699    3.105759    0.561906
 H      5.677907    2.501157   -0.472888
 H      0.823232    3.412706   -0.202631
 H     -1.346301    3.579815    1.018611
 H     -2.061154    1.689398    2.498827
 H     -0.517177   -0.334421    2.655413
 N      2.729315    0.089164   -0.638638
 N      0.827628    0.501745    1.389981
 H      3.869386   -1.245981   -1.662607
 H      5.903359    0.274848   -1.610687
