45

 Si     0.075417   -0.355391    2.226360
 O      0.605617   -1.452584    1.157518
 C      0.984924   -1.531322   -0.170723
 C      1.902187   -0.405868   -0.522168
 H      0.096029   -1.451901   -0.796748
 C      2.947688   -0.099264    0.330095
 C      1.650401    0.402899   -1.617107
 C      3.725885    1.021883    0.108660
 H      3.140543   -0.731824    1.184939
 C      2.427678    1.526446   -1.847861
 H      0.839613    0.161725   -2.293696
 C      3.462748    1.842621   -0.980435
 H      4.539132    1.257193    0.788901
 H      2.226455    2.156825   -2.709770
 H      4.073398    2.723427   -1.158468
 C      1.596089   -2.896432   -0.382019
 C      0.623650   -3.967258   -0.102760
 H      1.954667   -3.002845   -1.413641
 H      2.449223   -3.010498    0.288397
 C     -0.181339   -4.827951    0.130183
 H     -0.861785   -5.620970    0.331179
 Cl     1.129475    0.985533    3.303624
 Cl    -0.244328   -1.725994    3.701157
 O      0.180256    0.766937    0.817465
 O     -1.608519   -0.100958    1.978811
 C     -1.745521    1.617860    0.037814
 C     -2.072733    0.222932   -0.234094
 C     -2.137289   -1.931448    0.721592
 C     -0.094050    3.021061    0.945907
 C     -0.867328    4.136482    0.677493
 C     -2.545958    2.698886   -0.254172
 C     -2.103134    3.975164    0.074342
 C     -2.462662   -0.281508   -1.451578
 C     -2.685854   -1.649264   -1.577469
 C     -2.519684   -2.481519   -0.485094
 H     -3.510250    2.531356   -0.718970
 H     -2.729143    4.837045   -0.138728
 H     -2.565195    0.391625   -2.294135
 H     -2.979852   -2.059879   -2.539812
 H     -2.671674   -3.552790   -0.549310
 H     -1.953303   -2.466407    1.642633
 N     -0.550341    1.809737    0.628755
 N     -1.937598   -0.618460    0.804784
 H      0.881578    3.019083    1.409285
 H     -0.485112    5.115616    0.948865
