45

 Si    -0.229197   -1.059352    0.480384
 O      1.165875   -0.269564    0.827773
 C      2.111559    0.258777   -0.033988
 C      3.319339   -0.632320   -0.058942
 H      1.702548    0.328471   -1.044896
 C      3.685513   -1.302167    1.096870
 C      4.072489   -0.791421   -1.213175
 C      4.792727   -2.134082    1.103929
 H      3.088526   -1.176918    1.988904
 C      5.185037   -1.619792   -1.210585
 H      3.791089   -0.268201   -2.120751
 C      5.546190   -2.293590   -0.052438
 H      5.068849   -2.658610    2.014014
 H      5.770578   -1.740340   -2.117645
 H      6.416251   -2.944124   -0.050312
 C      2.468900    1.652312    0.437267
 C      1.391451    2.630494    0.199208
 H      3.360689    2.014517   -0.086911
 H      2.699035    1.613665    1.503617
 C      0.519298    3.429305   -0.015003
 H     -0.221079    4.166800   -0.209819
 Cl     0.365101   -2.302514   -0.985189
 Cl    -0.462037   -1.708810    2.383071
 O     -1.959260   -1.517328    0.309064
 O     -0.844228    0.439980   -0.128531
 C     -3.280845    0.005529   -0.752276
 C     -3.005936    0.840624    0.412376
 C     -1.253555    1.616570    1.784781
 C     -2.795538   -2.064395   -1.751805
 C     -3.589659   -1.749766   -2.839301
 C     -4.087890    0.357636   -1.809189
 C     -4.241332   -0.529073   -2.869022
 C     -3.942688    1.430532    1.227842
 C     -3.511664    2.129415    2.351471
 C     -2.159490    2.215583    2.638545
 H     -4.574416    1.325623   -1.801017
 H     -4.867255   -0.258579   -3.714827
 H     -4.994798    1.315849    0.996418
 H     -4.242176    2.589533    3.011516
 H     -1.790030    2.732675    3.518232
 H     -0.180651    1.593906    1.892430
 N     -2.658507   -1.190520   -0.754264
 N     -1.701492    0.978480    0.705587
 H     -2.243614   -2.983996   -1.618185
 H     -3.683708   -2.470813   -3.645229
