45

 Si     0.918335   -1.802429   -0.164083
 O     -0.312967   -1.598127    0.867687
 C     -1.681632   -1.834787    0.764722
 C     -2.235681   -1.019987   -0.367511
 H     -1.851905   -2.897493    0.575400
 C     -1.853940    0.305469   -0.486448
 C     -3.092747   -1.566037   -1.308329
 C     -2.293428    1.078924   -1.543651
 H     -1.205039    0.728849    0.254360
 C     -3.549100   -0.794319   -2.367115
 H     -3.398550   -2.602741   -1.224521
 C     -3.145508    0.526512   -2.491410
 H     -1.983455    2.115990   -1.627426
 H     -4.219816   -1.231298   -3.101402
 H     -3.500272    1.128166   -3.323414
 C     -2.315738   -1.455991    2.086264
 C     -1.583326   -2.023986    3.229019
 H     -3.356660   -1.800751    2.112119
 H     -2.335742   -0.370544    2.189745
 C     -0.951939   -2.468052    4.149065
 H     -0.418545   -2.868897    4.979099
 Cl     2.608555   -2.896234    0.022377
 Cl     0.025129   -2.980857   -1.573739
 O      0.949892   -0.465267   -1.238861
 O      1.781635   -0.656364    0.929125
 C      2.355314    1.241539   -0.663684
 C      1.412295    1.512451    0.417417
 C      0.383727    0.534961    2.289762
 C      2.901715   -0.265633   -2.390285
 C      4.070157    0.420810   -2.656456
 C      3.502234    1.964282   -0.904390
 C      4.368066    1.549191   -1.910111
 C      0.819433    2.724231    0.683603
 C     -0.022143    2.832939    1.785403
 C     -0.234193    1.733095    2.598089
 H      3.719620    2.827542   -0.287235
 H      5.281491    2.106878   -2.098837
 H      1.014772    3.565013    0.028618
 H     -0.504904    3.781201    2.005698
 H     -0.875101    1.781851    3.472757
 H      0.275138   -0.388829    2.835303
 N      2.091986    0.164119   -1.421597
 N      1.164783    0.458098    1.217124
 H      2.551667   -1.154205   -2.899742
 H      4.726388    0.060718   -3.442508
