45

 Si     1.333452   -1.852083    0.894412
 O     -0.263455   -1.880402    0.623305
 C     -0.975813   -1.865265   -0.574498
 C     -1.673717   -0.544600   -0.697465
 H     -0.282073   -1.965420   -1.406612
 C     -2.736416   -0.228793    0.134378
 C     -1.243870    0.387208   -1.629861
 C     -3.378042    0.994384    0.024742
 H     -3.073790   -0.950398    0.866546
 C     -1.875652    1.616398   -1.741386
 H     -0.416253    0.144916   -2.282190
 C     -2.949006    1.920876   -0.916523
 H     -4.219757    1.222241    0.672514
 H     -1.536576    2.333884   -2.483553
 H     -3.454071    2.878521   -1.008856
 C     -1.904024   -3.057132   -0.578189
 C     -1.131740   -4.310127   -0.580910
 H     -2.554682   -3.034031   -1.460914
 H     -2.533892   -3.029178    0.311611
 C     -0.474404   -5.314548   -0.582234
 H      0.095012   -6.213591   -0.583574
 Cl     1.283722   -2.955179    2.608979
 Cl     2.744594   -2.879211   -0.110729
 O      1.308052   -0.629623   -0.482102
 O      1.749899   -0.424679    1.758274
 C      1.978021    1.465864    0.003961
 C      0.826252    1.476235    0.896855
 C     -0.259220    0.258445    2.597141
 C      3.215355    0.128786   -1.477749
 C      4.112682    1.159685   -1.691456
 C      2.840949    2.522101   -0.185042
 C      3.924107    2.367580   -1.041999
 C     -0.144509    2.447678    0.942467
 C     -1.193719    2.311839    1.842004
 C     -1.259498    1.204275    2.668883
 H      2.667306    3.445710    0.353914
 H      4.618621    3.189369   -1.191648
 H     -0.080811    3.290506    0.266688
 H     -1.965375    3.074017    1.885562
 H     -2.071361    1.061249    3.373981
 H     -0.183473   -0.646899    3.183598
 N      2.186424    0.304012   -0.646761
 N      0.741568    0.433380    1.737300
 H      3.262173   -0.852760   -1.926695
 H      4.947010    0.994760   -2.366170
