45

 Si    -0.177575   -1.674644   -0.106179
 O      0.970516   -0.538197   -0.014306
 C      2.013962   -0.276553    0.860916
 C      3.305895   -0.180303    0.105034
 H      2.083196   -1.078980    1.598132
 C      3.293145    0.060690   -1.259097
 C      4.521294   -0.313299    0.764355
 C      4.480839    0.165909   -1.966064
 H      2.349589    0.141573   -1.776026
 C      5.712095   -0.203693    0.062866
 H      4.539436   -0.509176    1.831193
 C      5.694597    0.036928   -1.304301
 H      4.457784    0.346803   -3.036860
 H      6.657845   -0.310431    0.586793
 H      6.627441    0.120412   -1.854704
 C      1.701720    1.016002    1.590964
 C      0.365974    0.977626    2.207296
 H      2.448350    1.193478    2.373359
 H      1.751946    1.858097    0.900284
 C     -0.727129    0.924749    2.700614
 H     -1.678825    0.877467    3.169597
 Cl    -0.400266   -2.995014   -1.618317
 Cl     0.491000   -2.979119    1.321585
 O     -1.594628   -1.378700    0.818285
 O     -0.966965   -0.502691   -1.232181
 C     -3.312683   -0.337154   -0.273907
 C     -2.470369    0.853053   -0.228703
 C     -0.359315    1.669730   -0.845390
 C     -3.363184   -2.651514    0.163187
 C     -4.620179   -2.757431   -0.398548
 C     -4.570195   -0.394087   -0.831274
 C     -5.229702   -1.616556   -0.894473
 C     -2.843023    2.086322    0.250521
 C     -1.934771    3.136666    0.182944
 C     -0.687635    2.928532   -0.377213
 H     -5.010235    0.510930   -1.232084
 H     -6.217303   -1.672980   -1.344346
 H     -3.831249    2.212408    0.676534
 H     -2.209839    4.115498    0.565908
 H      0.043964    3.725972   -0.458346
 H      0.578345    1.383784   -1.289766
 N     -2.762022   -1.462086    0.210823
 N     -1.240253    0.680157   -0.748164
 H     -2.781758   -3.459901    0.587116
 H     -5.099831   -3.730278   -0.438060
