45

 Si     0.161584   -2.000483   -0.315738
 O     -1.120425   -1.393712    0.465902
 C     -2.394431   -1.020922    0.044030
 C     -2.270507    0.050854   -0.999514
 H     -2.904857   -1.890678   -0.376868
 C     -1.392022    1.098318   -0.780922
 C     -2.987674    0.002965   -2.183239
 C     -1.201946    2.077164   -1.737316
 H     -0.853539    1.141436    0.144949
 C     -2.812791    0.987504   -3.144989
 H     -3.679140   -0.812083   -2.364413
 C     -1.915125    2.021896   -2.928023
 H     -0.507156    2.891170   -1.555030
 H     -3.378364    0.941133   -4.071231
 H     -1.775850    2.789409   -3.684045
 C     -3.157426   -0.532632    1.256852
 C     -3.031507   -1.457829    2.393974
 H     -4.217448   -0.406950    1.004649
 H     -2.783235    0.445561    1.560972
 C     -2.888726   -2.208275    3.320659
 H     -2.792061   -2.870102    4.149322
 Cl     1.188247   -3.714019   -0.002061
 Cl    -0.713672   -2.564980   -2.073279
 O      0.984030   -0.707832   -1.087963
 O      1.080438   -1.425715    1.126279
 C      2.731825    0.196341    0.073062
 C      1.717810    0.735871    0.973985
 C     -0.057017    0.110089    2.380435
 C      3.091233   -1.238234   -1.761153
 C      4.458924   -1.082030   -1.650131
 C      4.087811    0.391104    0.211626
 C      4.959448   -0.254412   -0.658406
 C      1.588556    2.054020    1.343380
 C      0.597366    2.402606    2.254550
 C     -0.225018    1.422742    2.782198
 H      4.449595    1.023794    1.012973
 H      6.031557   -0.115102   -0.548450
 H      2.255068    2.792667    0.914157
 H      0.476777    3.440964    2.551219
 H     -1.002159    1.653828    3.503849
 H     -0.650168   -0.729461    2.706183
 N      2.284528   -0.599059   -0.912982
 N      0.885350   -0.187081    1.491718
 H      2.574294   -1.849233   -2.489902
 H      5.107827   -1.610611   -2.341267
