45

 Si    -1.270147    1.822340    1.036174
 O      0.314203    1.844182    0.699220
 C      0.977352    1.878734   -0.525922
 C      1.652868    0.558060   -0.740193
 H      0.252219    2.026627   -1.323517
 C      2.746023    0.192076    0.029322
 C      1.170716   -0.324929   -1.694271
 C      3.365720   -1.032104   -0.163619
 H      3.124313    0.875220    0.778203
 C      1.780924   -1.554571   -1.889521
 H      0.318226   -0.043963   -2.297152
 C      2.884594   -1.908988   -1.126976
 H      4.231120   -1.299369    0.436110
 H      1.400889   -2.232994   -2.648396
 H      3.372955   -2.866640   -1.285452
 C      1.919600    3.059442   -0.511102
 C      1.163973    4.319457   -0.422174
 H      2.533405    3.072165   -1.420076
 H      2.585387    2.982404    0.349174
 C      0.520083    5.329881   -0.348572
 H     -0.037226    6.234164   -0.283547
 Cl    -1.133515    2.841234    2.797451
 Cl    -2.708052    2.912349    0.141307
 O     -1.318781    0.666857   -0.396878
 O     -1.670177    0.360352    1.848350
 C     -1.997757   -1.441264    0.017608
 C     -0.810267   -1.508494    0.859896
 C      0.363317   -0.385276    2.566648
 C     -3.275685   -0.020291   -1.346852
 C     -4.195434   -1.028788   -1.571384
 C     -2.882364   -2.476848   -0.185104
 C     -3.997589   -2.268437   -0.987735
 C      0.148140   -2.492255    0.817943
 C      1.236845   -2.411116    1.676253
 C      1.352688   -1.345115    2.550805
 H     -2.700066   -3.427062    0.302289
 H     -4.709667   -3.073336   -1.146385
 H      0.043685   -3.301783    0.107402
 H      1.999467   -3.183119    1.650255
 H      2.195410   -1.245355    3.226529
 H      0.325071    0.491689    3.198131
 N     -2.216123   -0.247331   -0.568415
 N     -0.675433   -0.507604    1.743614
 H     -3.326780    0.982022   -1.746766
 H     -5.054131   -0.822227   -2.202674
