51

 Si    -0.955334   -2.331191    0.827301
 O     -2.027495   -1.141262    0.582831
 C     -2.519443   -0.612994   -0.608482
 C     -2.060671    0.807949   -0.724500
 H     -2.115514   -1.176700   -1.446831
 C     -2.533935    1.769930    0.154163
 C     -1.142829    1.170439   -1.698006
 C     -2.111667    3.085376    0.052576
 H     -3.247562    1.489271    0.917337
 C     -0.718344    2.485867   -1.808592
 H     -0.767126    0.421958   -2.383523
 C     -1.203543    3.447220   -0.933936
 H     -2.499670    3.832259    0.739351
 H     -0.013822    2.762125   -2.587853
 H     -0.880482    4.480743   -1.024227
 C     -4.022727   -0.768533   -0.604757
 C     -4.398326   -2.191493   -0.610824
 H     -4.460045   -0.278968   -1.483508
 H     -4.433211   -0.296076    0.288291
 C     -4.677319   -3.358991   -0.615328
 H     -4.937840   -4.390651   -0.618228
 Cl    -1.819633   -3.048711    2.533050
 Cl    -0.830333   -4.056601   -0.205521
 O     -0.052503   -1.484501   -0.537175
 O      0.398273   -1.747384    1.712845
 C      2.023344   -0.797681    0.011768
 C      1.279895    0.155804    0.826329
 C     -0.384427    0.242555    2.499317
 C      1.704182   -2.546826   -1.530392
 C      3.076682   -2.696393   -1.660584
 C      3.395898   -0.931299   -0.041076
 C      3.911976   -1.903846   -0.905853
 C      1.361099    1.530802    0.768796
 C      0.543294    2.253901    1.642828
 C     -0.325679    1.622958    2.504795
 H      4.987283   -2.034083   -0.971173
 H      0.592657    3.336791    1.629009
 H     -0.968887    2.179735    3.177289
 H     -1.031106   -0.382066    3.099302
 N      1.226686   -1.630245   -0.696563
 N      0.415828   -0.423179    1.679142
 H      0.952694   -3.134286   -2.036047
 H      3.462558   -3.451577   -2.337962
 C      4.318344   -0.103804    0.808871
 H      4.837205    0.638893    0.198681
 H      3.784424    0.405648    1.603993
 H      5.073146   -0.750530    1.258309
 C      2.276363    2.243628   -0.184376
 H      1.763744    3.107172   -0.603343
 H      3.165246    2.601902    0.340063
 H      2.588652    1.596943   -0.997573
