51

 Si     0.211268   -2.239178   -0.181504
 O     -0.962803   -1.836296    0.857420
 C     -2.351589   -1.868945    0.787360
 C     -2.816280   -0.985546   -0.333890
 H     -2.681622   -2.895866    0.610483
 C     -2.192605    0.235132   -0.526444
 C     -3.842556   -1.365521   -1.182866
 C     -2.563305    1.064381   -1.567807
 H     -1.406549    0.528571    0.140102
 C     -4.229349   -0.534604   -2.224401
 H     -4.337534   -2.319598   -1.040322
 C     -3.587328    0.678503   -2.423273
 H     -2.061509    2.016060   -1.712146
 H     -5.034117   -0.840936   -2.886603
 H     -3.888160    1.325825   -3.242068
 C     -2.890425   -1.393926    2.120262
 C     -2.232721   -2.068303    3.250588
 H     -3.971858   -1.569482    2.170372
 H     -2.735823   -0.318711    2.218932
 C     -1.659462   -2.606149    4.158564
 H     -1.177694   -3.085215    4.978456
 Cl     1.667078   -3.636312   -0.025450
 Cl    -0.889806   -3.211079   -1.605117
 O      0.492252   -0.917982   -1.238832
 O      1.274300   -1.302172    0.934311
 C      2.248846    0.395898   -0.623710
 C      1.316035    0.885807    0.386318
 C      0.095798    0.138408    2.256260
 C      2.449157   -1.191476   -2.361196
 C      3.771809   -0.835018   -2.556523
 C      3.571097    0.772008   -0.753490
 C      4.323023    0.136817   -1.748612
 C      0.886216    2.184197    0.552848
 C      0.044350    2.440329    1.642697
 C     -0.333026    1.433884    2.502833
 H      5.366603    0.408897   -1.871033
 H     -0.312056    3.452572    1.805530
 H     -0.974677    1.623623    3.357220
 H     -0.175965   -0.737570    2.822731
 N      1.752151   -0.573134   -1.415089
 N      0.873152   -0.088869    1.210197
 H      1.900650   -1.954731   -2.897165
 H      4.350283   -1.338124   -3.324572
 C      4.203380    1.798929    0.143516
 H      4.272841    2.760818   -0.370002
 H      3.636870    1.932354    1.059496
 H      5.214466    1.484956    0.403362
 C      1.278659    3.287088   -0.389869
 H      0.391933    3.855698   -0.673808
 H      1.973869    3.974992    0.096813
 H      1.742732    2.898994   -1.290880
