51

 Si    -0.669389   -2.128734   -0.344670
 O     -1.792301   -1.272896    0.447025
 C     -3.016706   -0.728849    0.073661
 C     -2.805265    0.264745   -1.031538
 H     -3.679351   -1.527911   -0.268645
 C     -1.719041    1.120072   -0.963161
 C     -3.660378    0.338128   -2.118597
 C     -1.464374    2.025239   -1.975706
 H     -1.067277    1.066203   -0.114296
 C     -3.419278    1.251494   -3.134725
 H     -4.514215   -0.327162   -2.181330
 C     -2.318380    2.092343   -3.069135
 H     -0.605273    2.685830   -1.913324
 H     -4.094063    1.301440   -3.984541
 H     -2.128417    2.803909   -3.867609
 C     -3.619572   -0.070620    1.296777
 C     -3.578203   -0.954524    2.472399
 H     -4.658375    0.216034    1.092895
 H     -3.074384    0.844826    1.529917
 C     -3.503422   -1.679630    3.426843
 H     -3.465089   -2.313712    4.281447
 Cl     0.020180   -4.001613   -0.010018
 Cl    -1.694925   -2.563329   -2.060132
 O      0.359759   -1.042794   -1.183774
 O      0.381711   -1.711163    1.060313
 C      2.294814   -0.568626   -0.079170
 C      1.425788    0.264081    0.746568
 C     -0.395813    0.089547    2.228075
 C      2.247812   -2.102314   -1.874693
 C      3.607613   -2.322527   -1.743479
 C      3.646350   -0.771012    0.117984
 C      4.293307   -1.661828   -0.746374
 C      1.526475    1.624592    0.939846
 C      0.626933    2.206815    1.841898
 C     -0.313855    1.446828    2.499724
 H      5.355078   -1.843617   -0.613373
 H      0.679211    3.276173    2.020604
 H     -1.007306    1.885641    3.209852
 H     -1.121736   -0.595131    2.635955
 N      1.654626   -1.248851   -1.048337
 N      0.448258   -0.439923    1.357698
 H      1.584001   -2.574025   -2.587108
 H      4.100258   -3.021107   -2.412021
 C      4.404361   -0.093785    1.225107
 H      4.971974    0.753855    0.833830
 H      3.738976    0.262216    2.005058
 H      5.112417   -0.795414    1.666394
 C      2.538251    2.465926    0.213434
 H      2.047473    3.347663   -0.201213
 H      3.313992    2.808846    0.901886
 H      3.006773    1.918652   -0.598220
