51

 Si     0.953033   -2.139450   -0.032656
 O      1.981104   -1.073814   -0.668028
 C      3.006213   -0.160615   -0.467424
 C      2.449794    1.035231    0.257655
 H      3.321142    0.151410   -1.471058
 C      1.599778    0.850052    1.334197
 C      2.743414    2.325751   -0.160236
 C      1.017536    1.932180    1.968466
 H      1.394511   -0.148064    1.677442
 C      2.174666    3.417188    0.479812
 H      3.417574    2.483194   -0.995655
 C      1.300749    3.222439    1.539896
 H      0.349484    1.766447    2.808248
 H      2.410679    4.423074    0.143419
 H      0.850626    4.076014    2.039150
 C      4.210650   -0.756906    0.221982
 C      4.723006   -1.913632   -0.528718
 H      4.996539    0.006220    0.285059
 H      3.954888   -1.065876    1.233813
 C      5.120237   -2.854065   -1.160087
 H      5.490139   -3.689317   -1.705998
 Cl     0.546840   -3.963713   -0.792781
 Cl     2.030177   -2.748829    1.600201
 O     -0.225258   -1.487182    1.036273
 O     -0.193708   -1.533157   -1.289585
 C     -2.208510   -0.932242    0.071537
 C     -1.434625    0.174214   -0.479552
 C      0.339911    0.582134   -1.965524
 C     -1.972657   -2.906967    1.344577
 C     -3.302226   -3.222929    1.129717
 C     -3.534756   -1.208190   -0.197956
 C     -4.069921   -2.375165    0.358522
 C     -1.669500    1.518703   -0.301134
 C     -0.863235    2.406735   -1.023322
 C      0.112143    1.946312   -1.875413
 H     -5.108526   -2.621680    0.161914
 H     -1.023881    3.473418   -0.910940
 H      0.725188    2.623355   -2.459137
 H      1.103029    0.104248   -2.555225
 N     -1.487424   -1.791439    0.812084
 N     -0.407126   -0.242743   -1.252264
 H     -1.253715   -3.490070    1.904389
 H     -3.708469   -4.134238    1.556449
 C     -4.375735   -0.318387   -1.069691
 H     -5.000183    0.334442   -0.455026
 H     -3.762194    0.298414   -1.718761
 H     -5.034561   -0.926976   -1.689007
 C     -2.725475    2.030884    0.636492
 H     -2.283608    2.771674    1.304592
 H     -3.529303    2.518257    0.080262
 H     -3.148455    1.233658    1.239029
