51

 Si    -0.502360   -1.829627   -0.029024
 O     -1.578616   -0.622893   -0.070451
 C     -2.612509   -0.260623   -0.918152
 C     -3.874121   -0.059968   -0.130425
 H     -2.767929   -1.046086   -1.661109
 C     -3.818825    0.057638    1.248461
 C     -5.102553    0.023757   -0.774529
 C     -4.976990    0.256009    1.984747
 H     -2.868869   -0.030910    1.751982
 C     -6.262607    0.225885   -0.043431
 H     -5.155493   -0.075764   -1.853379
 C     -6.202417    0.344208    1.338811
 H     -4.921157    0.338897    3.066378
 H     -7.218463    0.288509   -0.556051
 H     -7.111542    0.501431    1.912269
 C     -2.205392    1.008486   -1.643121
 C     -0.889642    0.864377   -2.285298
 H     -2.948836    1.257267   -2.408701
 H     -2.170149    1.844267   -0.944098
 C      0.185460    0.726024   -2.800710
 H      1.122163    0.599176   -3.284201
 Cl    -0.376282   -3.237877    1.415558
 Cl    -1.250418   -3.023351   -1.515872
 O      0.929658   -1.577962   -0.941584
 O      0.344773   -0.770768    1.163812
 C      2.678719   -0.754586    0.268976
 C      1.932726    0.495960    0.180458
 C     -0.120036    1.441669    0.829842
 C      2.544406   -3.042301   -0.301488
 C      3.739723   -3.291773    0.348957
 C      3.858681   -0.949163    0.958991
 C      4.382255   -2.247097    0.978683
 C      2.368606    1.680901   -0.370736
 C      1.507626    2.780851   -0.277414
 C      0.281669    2.673589    0.337768
 H      5.307988   -2.430636    1.514820
 H      1.819139    3.731016   -0.699311
 H     -0.387639    3.522922    0.427160
 H     -1.066754    1.218217    1.290073
 N      2.067348   -1.803152   -0.312219
 N      0.696172    0.406976    0.716226
 H      1.922065   -3.767855   -0.808013
 H      4.135060   -4.302212    0.366545
 C      4.553975    0.165506    1.689145
 H      5.407911    0.524733    1.109937
 H      3.884589    0.998840    1.876406
 H      4.928068   -0.200982    2.645311
 C      3.697017    1.803794   -1.062711
 H      3.562800    2.315547   -2.016753
 H      4.388774    2.396840   -0.460245
 H      4.142229    0.832295   -1.252291
