51

 Si     0.487479   -2.401454    0.433457
 O     -0.861101   -1.774915   -0.182370
 C     -2.236927   -1.862678   -0.084394
 C     -2.763978   -0.460309   -0.193486
 H     -2.520642   -2.302353    0.875949
 C     -2.185892    0.385435   -1.128233
 C     -3.799244    0.004352    0.602430
 C     -2.631928    1.687480   -1.268149
 H     -1.376556    0.011355   -1.737940
 C     -4.251953    1.310592    0.465951
 H     -4.256679   -0.652889    1.335168
 C     -3.669451    2.153954   -0.467819
 H     -2.177812    2.339645   -2.008296
 H     -5.064096    1.668235    1.093216
 H     -4.026606    3.174391   -0.576968
 C     -2.761349   -2.733263   -1.204786
 C     -2.233090   -4.103860   -1.125754
 H     -3.856872   -2.771928   -1.173656
 H     -2.465155   -2.293600   -2.158931
 C     -1.793371   -5.218042   -1.048185
 H     -1.407987   -6.207299   -0.979346
 Cl    -0.324386   -3.427461    2.013840
 Cl     1.654805   -3.870382   -0.303245
 O      1.172133   -1.267186   -0.843153
 O      1.241076   -1.266817    1.485672
 C      2.448191    0.392454   -0.011691
 C      1.183425    0.821405    0.576603
 C     -0.492549    0.092786    2.071812
 C      3.398372   -1.297286   -1.346694
 C      4.648259   -0.709747   -1.218990
 C      3.672310    1.001519    0.180809
 C      4.780820    0.424922   -0.450295
 C      0.558196    2.035770    0.398699
 C     -0.610906    2.268367    1.133399
 C     -1.128811    1.316136    1.980014
 H      5.757854    0.877966   -0.317689
 H     -1.115250    3.221870    1.024690
 H     -2.030258    1.491311    2.554364
 H     -0.807881   -0.758764    2.658284
 N      2.356156   -0.743934   -0.737541
 N      0.618315   -0.102267    1.377525
 H      3.174424   -2.201098   -1.893497
 H      5.499487   -1.169382   -1.711206
 C      3.838000    2.218064    1.047354
 H      3.963217    3.110442    0.429674
 H      2.986035    2.364623    1.702935
 H      4.732950    2.109330    1.660851
 C      1.080011    3.075261   -0.552295
 H      0.260627    3.437794   -1.174099
 H      1.486419    3.928076   -0.004059
 H      1.852169    2.673379   -1.199933
