51

 Si     0.718913   -0.223282   -1.848159
 O      1.242778    0.900636   -0.801916
 C      2.558990    1.284741   -0.554467
 C      3.263015    0.135131    0.099862
 H      3.048364    1.523726   -1.502886
 C      2.667750   -0.484038    1.187993
 C      4.461653   -0.352447   -0.395761
 C      3.256791   -1.587843    1.775603
 H      1.727570   -0.106930    1.559079
 C      5.062043   -1.455853    0.194171
 H      4.928392    0.123621   -1.251456
 C      4.459846   -2.075947    1.277988
 H      2.782932   -2.067383    2.626826
 H      6.001615   -1.833089   -0.199265
 H      4.928716   -2.940932    1.738889
 C      2.519020    2.522301    0.308106
 C      1.894337    3.657035   -0.395101
 H      3.535117    2.814674    0.599986
 H      1.958272    2.305711    1.218712
 C      1.394803    4.571117   -0.993866
 H      0.981091    5.400983   -1.516276
 Cl     1.190513    0.752529   -3.585068
 Cl     1.603255   -1.981285   -2.291815
 O      0.105293   -0.990201   -0.307848
 O     -0.955852    0.102611   -2.063697
 C     -2.137063   -1.123391   -0.180054
 C     -1.997672    0.321846   -0.046288
 C     -1.085717    2.193065   -1.162460
 C     -0.838293   -3.071496   -0.420914
 C     -1.990150   -3.845669   -0.434189
 C     -3.316830   -1.835626   -0.220411
 C     -3.217112   -3.227121   -0.347928
 C     -2.385930    1.089193    1.028037
 C     -2.117091    2.463444    0.960422
 C     -1.482261    3.019868   -0.125621
 H     -4.125634   -3.819481   -0.385936
 H     -2.412276    3.095904    1.791988
 H     -1.265071    4.080036   -0.181129
 H     -0.545124    2.487998   -2.049308
 N     -0.948526   -1.753618   -0.312680
 N     -1.354997    0.900018   -1.079780
 H      0.174238   -3.435678   -0.512914
 H     -1.899805   -4.922935   -0.531994
 C     -4.660157   -1.165517   -0.154048
 H     -5.125882   -1.343643    0.818100
 H     -4.582187   -0.095052   -0.313806
 H     -5.314585   -1.584091   -0.919840
 C     -3.049545    0.497828    2.240385
 H     -2.607757    0.921936    3.142751
 H     -4.115567    0.737271    2.245032
 H     -2.934222   -0.580671    2.272951
