45

 Si     1.201595   -1.744440    0.831393
 O     -0.128265   -1.866935   -0.052899
 C     -1.485733   -2.006892    0.133822
 C     -2.135199   -0.701149   -0.231670
 H     -1.697963   -2.256951    1.175524
 C     -1.506040    0.119675   -1.152478
 C     -3.354258   -0.318356    0.306931
 C     -2.085358    1.316157   -1.537929
 H     -0.554348   -0.188461   -1.553285
 C     -3.940492    0.879061   -0.076475
 H     -3.846528   -0.955500    1.033989
 C     -3.308532    1.698322   -1.001346
 H     -1.585240    1.949539   -2.264693
 H     -4.895284    1.172838    0.351332
 H     -3.770132    2.634261   -1.304070
 C     -1.975941   -3.127409   -0.754450
 C     -1.330682   -4.403595   -0.411023
 H     -1.745229   -2.878352   -1.792195
 H     -3.063110   -3.239535   -0.664733
 C     -0.791808   -5.434700   -0.115824
 H     -0.325853   -6.356174    0.141445
 Cl     0.663385   -2.811702    2.479112
 Cl     2.953305   -2.657387    0.467104
 O      1.563360   -0.550770   -0.572191
 O      1.334305   -0.286496    1.717275
 C      2.495076    1.418449    0.083870
 C      1.166152    1.710560    0.606876
 C     -0.642164    0.821493    1.826561
 C      3.679800   -0.085238   -1.271780
 C      4.801518    0.735729   -1.230561
 C      3.568415    2.267531    0.143136
 C      4.752029    1.902189   -0.504476
 C      0.472744    2.866619    0.374291
 C     -0.812337    3.003694    0.909479
 C     -1.372035    1.985627    1.641023
 H      3.480433    3.198596    0.688807
 H      5.623079    2.549825   -0.457096
 H      0.922901    3.647275   -0.225436
 H     -1.375641    3.916612    0.737904
 H     -2.361383    2.022232    2.074818
 N      2.588973    0.237683   -0.569326
 N      0.596216    0.730353    1.331727
 H      5.667828    0.406846   -1.791256
 F      3.611903   -1.134442   -1.979507
 F     -1.053460   -0.186683    2.458278
