45

 Si    -0.279005   -1.740182    0.396694
 O      0.822772   -0.571007    0.435698
 C      1.956353   -0.234116    1.150520
 C      3.103387   -0.298879    0.188615
 H      2.094740   -0.961646    1.956024
 C      3.131184   -1.375090   -0.687571
 C      4.097046    0.662692    0.110578
 C      4.126278   -1.486349   -1.639684
 H      2.362470   -2.129259   -0.625503
 C      5.104088    0.553691   -0.839067
 H      4.105048    1.502490    0.793456
 C      5.118405   -0.516298   -1.719359
 H      4.130811   -2.333564   -2.319080
 H      5.880468    1.312052   -0.888017
 H      5.904469   -0.599165   -2.464571
 C      1.717123    1.127397    1.762915
 C      0.370173    1.211802    2.343827
 H      1.814253    1.906454    1.008845
 H      2.458303    1.337803    2.542043
 C     -0.742602    1.271251    2.789228
 H     -1.710398    1.329092    3.223522
 Cl    -0.401824   -3.316002   -0.849267
 Cl     0.229330   -2.731124    2.098364
 O     -1.732987   -1.191276    1.103706
 O     -0.884336   -0.800509   -1.021100
 C     -3.183777   -0.066776   -0.273433
 C     -2.147918    0.957733   -0.341975
 C      0.067807    1.270123   -1.064361
 C     -3.618972   -2.265229    0.462990
 C     -4.852344   -2.258618   -0.178196
 C     -4.394591   -0.008160   -0.907309
 C     -5.237579   -1.125200   -0.855043
 C     -2.293749    2.286872   -0.065954
 C     -1.199216    3.132951   -0.280064
 C     -0.028963    2.632878   -0.794245
 H     -4.664934    0.882397   -1.460672
 H     -6.197611   -1.102094   -1.364384
 H     -3.238321    2.657830    0.311993
 H     -1.281236    4.193742   -0.058498
 H      0.839295    3.239497   -1.018645
 N     -2.840120   -1.181558    0.400709
 N     -0.969921    0.481091   -0.797145
 H     -5.452489   -3.157594   -0.106185
 F     -3.161506   -3.236611    1.126661
 F      1.080596    0.736467   -1.587062
