45

 Si    -1.170624    1.642405    1.345974
 O      0.303629    1.830529    0.720458
 C      0.810784    1.889824   -0.569771
 C      1.735505    0.725199   -0.745178
 H      0.001556    1.804028   -1.290179
 C      2.918946    0.659633   -0.024531
 C      1.403088   -0.311719   -1.601720
 C      3.780348   -0.412669   -0.183356
 H      3.169858    1.458206    0.660608
 C      2.258501   -1.392938   -1.761723
 H      0.475335   -0.267852   -2.157903
 C      3.453523   -1.440830   -1.059417
 H      4.710737   -0.445099    0.376591
 H      1.995237   -2.194134   -2.446822
 H      4.131426   -2.279674   -1.191783
 C      1.471569    3.235494   -0.750195
 C      0.471384    4.309715   -0.641081
 H      1.961245    3.297524   -1.729728
 H      2.229313    3.375065    0.021324
 C     -0.369216    5.161099   -0.543529
 H     -1.101988    5.928160   -0.459079
 Cl    -0.830646    2.636272    3.080517
 Cl    -2.931697    2.491316    0.885667
 O     -1.363163    0.545038   -0.164621
 O     -1.231120    0.112662    2.102713
 C     -2.155351   -1.531611    0.299810
 C     -0.816719   -1.742011    0.834006
 C      0.892519   -0.708729    2.082300
 C     -3.394545   -0.031921   -1.012459
 C     -4.448341   -0.937441   -1.078907
 C     -3.157531   -2.462382    0.251477
 C     -4.338192   -2.142796   -0.426991
 C      0.007310   -2.778865    0.502390
 C      1.315267   -2.783336    1.001879
 C      1.762738   -1.749738    1.784529
 H     -3.016855   -3.421450    0.734224
 H     -5.156172   -2.856884   -0.465110
 H     -0.351706   -3.559624   -0.155831
 H      1.985420   -3.601575    0.755538
 H      2.762072   -1.685938    2.192172
 N     -2.316462   -0.317211   -0.276202
 N     -0.362705   -0.759960    1.635027
 H     -5.312229   -0.639782   -1.660435
 F     -3.375052    1.062935   -1.650971
 F      1.193005    0.291067    2.780317
