45

 Si     0.023503   -0.550697    2.152391
 O      0.385096   -1.626488    0.994337
 C      0.805221   -1.613112   -0.322948
 C      1.890360   -0.602796   -0.509051
 H     -0.032199   -1.331515   -0.961921
 C      2.894566   -0.515736    0.436938
 C      1.839326    0.319147   -1.539741
 C      3.834943    0.494719    0.369757
 H      2.931343   -1.236345    1.241278
 C      2.780030    1.332232   -1.615525
 H      1.058975    0.251750   -2.288131
 C      3.777115    1.425273   -0.657377
 H      4.615050    0.555831    1.122315
 H      2.736769    2.051165   -2.428869
 H      4.515478    2.219511   -0.714325
 C      1.224091   -3.020564   -0.672958
 C      0.095991   -3.961505   -0.566557
 H      2.011430   -3.334936    0.013637
 H      1.622558   -3.060591   -1.694577
 C     -0.828959   -4.722876   -0.481808
 H     -1.621975   -5.427820   -0.406417
 Cl     1.069961    0.778670    3.240797
 Cl    -0.197837   -1.936003    3.611702
 O      0.152425    0.585646    0.739948
 O     -1.638528   -0.190719    1.988743
 C     -1.680285    1.821753    0.308917
 C     -2.218001    0.531295   -0.107339
 C     -2.343337   -1.748954    0.484067
 C      0.372349    2.833304    0.848160
 C     -0.221700    4.091043    0.807009
 C     -2.308392    3.035033    0.241581
 C     -1.565175    4.186665    0.527963
 C     -2.737321    0.272357   -1.343707
 C     -3.060221   -1.050768   -1.674645
 C     -2.856514   -2.062533   -0.770620
 H     -3.354394    3.082550   -0.035222
 H     -2.042111    5.162573    0.498255
 H     -2.856061    1.080678   -2.054195
 H     -3.459235   -1.280497   -2.659427
 H     -3.064710   -3.105796   -0.966983
 N     -0.380997    1.746913    0.671481
 N     -2.055571   -0.476971    0.770981
 H      0.420172    4.943766    0.991460
 F      1.609605    2.636340    1.013407
 F     -2.142837   -2.580991    1.397221
