45

 Si     0.328115   -1.647249    0.932121
 O      1.907418   -1.252438    0.785733
 C      2.696070   -0.958125   -0.318757
 C      2.037849    0.193705   -1.022867
 H      2.709409   -1.820017   -0.991298
 C      2.117262    1.474816   -0.511462
 C      1.155888   -0.065874   -2.058711
 C      1.274951    2.469353   -0.970579
 H      2.827046    1.694791    0.270327
 C      0.313433    0.924578   -2.529826
 H      1.104852   -1.061990   -2.478983
 C      0.354763    2.191423   -1.970208
 H      1.344204    3.470257   -0.554887
 H     -0.376467    0.706161   -3.339592
 H     -0.305449    2.973358   -2.335287
 C      4.096470   -0.700090    0.171146
 C      4.670457   -1.912469    0.776142
 H      4.077226    0.090895    0.920727
 H      4.740989   -0.373732   -0.654748
 C      5.125362   -2.911701    1.261629
 H      5.548437   -3.789085    1.689850
 Cl     0.423889   -2.057154    2.894886
 Cl     0.192746   -3.080814   -0.466549
 O     -0.042462   -0.101320    0.297585
 O     -1.465629   -1.604397    1.216023
 C     -1.993697    0.919646    0.786212
 C     -2.568145   -0.074559   -0.110862
 C     -2.879354   -2.386376   -0.387308
 C      0.000402    1.447666    1.926659
 C     -0.641293    2.457796    2.628567
 C     -2.672523    1.909796    1.446297
 C     -1.975377    2.691893    2.372997
 C     -3.395480    0.198650   -1.164966
 C     -3.954707   -0.867651   -1.876895
 C     -3.714649   -2.159774   -1.476434
 H     -3.732066    2.045788    1.269093
 H     -2.495878    3.475239    2.918051
 H     -3.599052    1.229130   -1.427406
 H     -4.600843   -0.674980   -2.729034
 H     -4.146565   -3.032396   -1.950794
 N     -0.684508    0.748466    1.020616
 N     -2.279876   -1.356250    0.219589
 H     -0.055941    3.009035    3.354437
 F      1.202487    1.100337    2.070088
 F     -2.669765   -3.534337    0.098680
