45

 Si    -0.298265   -1.773059   -0.167090
 O      0.804103   -0.686153    0.264189
 C      1.910024   -0.598724    1.088012
 C      3.093579   -0.383544    0.194566
 H      2.016339   -1.539495    1.636614
 C      3.153256   -1.142747   -0.966045
 C      4.092336    0.541071    0.450182
 C      4.186182   -0.975144   -1.868183
 H      2.381220   -1.869600   -1.163883
 C      5.136850    0.710394   -0.448977
 H      4.075989    1.132485    1.356610
 C      5.183669   -0.041769   -1.611635
 H      4.216138   -1.576118   -2.772242
 H      5.916449    1.436343   -0.235703
 H      5.998607    0.093914   -2.317021
 C      1.651038    0.513418    2.078444
 C      0.284565    0.432936    2.612319
 H      1.776545    1.484613    1.602883
 H      2.365038    0.467289    2.908416
 C     -0.844065    0.366623    3.014816
 H     -1.827248    0.300651    3.411776
 Cl    -0.380761   -2.890369   -1.839072
 Cl     0.146750   -3.243887    1.165178
 O     -1.775425   -1.448553    0.625727
 O     -0.851394   -0.436851   -1.248193
 C     -3.172901    0.063882   -0.387468
 C     -2.132458    1.046050   -0.104353
 C      0.107758    1.535050   -0.625151
 C     -3.640194   -2.248254   -0.376256
 C     -4.848452   -2.028804   -1.027474
 C     -4.358717    0.330282   -1.015401
 C     -5.205473   -0.737415   -1.337624
 C     -2.284156    2.228956    0.560189
 C     -1.180689    3.085757    0.649921
 C      0.005381    2.751273    0.045527
 H     -4.605890    1.351140   -1.278312
 H     -6.146217   -0.546680   -1.847761
 H     -3.240551    2.479856    1.001817
 H     -1.267845    4.029493    1.181766
 H      0.882862    3.385505    0.046559
 N     -2.857106   -1.208259   -0.075817
 N     -0.940904    0.716168   -0.646056
 H     -5.452628   -2.898397   -1.256222
 F     -3.210112   -3.382397   -0.026709
 F      1.136774    1.173067   -1.252863
