45

 Si    -0.064922    0.171617   -1.935347
 O     -1.000957   -0.626270   -0.894541
 C     -1.664548   -0.390559    0.295802
 C     -3.086842   -0.848349    0.150308
 H     -1.650573    0.673424    0.531339
 C     -3.370932   -1.927815   -0.670319
 C     -4.114692   -0.218100    0.838638
 C     -4.674368   -2.374320   -0.813514
 H     -2.566562   -2.403650   -1.211735
 C     -5.420678   -0.665140    0.702753
 H     -3.897730    0.625953    1.484853
 C     -5.702550   -1.743446   -0.124334
 H     -4.888364   -3.216688   -1.464848
 H     -6.220864   -0.167507    1.243368
 H     -6.725544   -2.092598   -0.233257
 C     -0.966166   -1.151613    1.405495
 C      0.213822   -0.461866    1.952935
 H     -0.687011   -2.133231    1.023399
 H     -1.650486   -1.306536    2.246862
 C      1.126177    0.127586    2.466171
 H      1.911766    0.634287    2.968461
 Cl    -0.367349    1.948126   -2.838206
 Cl    -0.515721   -0.997160   -3.543767
 O      0.486418    1.006924   -0.411106
 O      1.570208   -0.335919   -1.950187
 C      2.675177    1.564477   -0.481549
 C      2.899463    0.156694   -0.177560
 C      2.093949   -2.035652   -0.512815
 C      1.006870    3.222260   -0.346574
 C      1.980398    4.204199   -0.496091
 C      3.660219    2.505743   -0.625989
 C      3.297014    3.850722   -0.673455
 C      3.723544   -0.260756    0.833537
 C      3.719861   -1.606974    1.190524
 C      2.889215   -2.482417    0.535268
 H      4.693300    2.187436   -0.690931
 H      4.054772    4.617281   -0.807354
 H      4.322675    0.466933    1.365199
 H      4.351273   -1.958026    2.002013
 H      2.843440   -3.532548    0.798683
 N      1.378162    1.939174   -0.428119
 N      2.148094   -0.738661   -0.840796
 H      1.667415    5.241112   -0.465148
 Cl     1.114320   -3.052096   -1.391414
 Cl    -0.590691    3.583950   -0.006653
