45

 Si    -0.588211   -1.120526    0.464110
 O      0.911706   -1.304317   -0.144972
 C      2.184428   -1.636913    0.267305
 C      3.136354   -0.609780   -0.270213
 H      2.236039   -1.636848    1.358277
 C      2.984989   -0.177281   -1.577786
 C      4.137278   -0.064185    0.519622
 C      3.817583    0.799241   -2.095265
 H      2.195814   -0.602615   -2.180932
 C      4.977357    0.914237    0.005697
 H      4.265847   -0.404112    1.541565
 C      4.817335    1.349234   -1.301102
 H      3.688893    1.132773   -3.120842
 H      5.758787    1.336838    0.630946
 H      5.473730    2.115505   -1.703727
 C      2.517030   -3.024370   -0.235216
 C      1.677221   -4.051739    0.402502
 H      3.568392   -3.261168   -0.032739
 H      2.362754   -3.051950   -1.314757
 C      0.995967   -4.880146    0.942338
 H      0.404571   -5.625994    1.416169
 Cl    -0.175946   -1.378141    2.425248
 Cl    -1.439291   -2.462822   -0.778071
 O     -0.639977    0.428020   -0.295407
 O     -2.191963   -0.569736    1.107995
 C     -2.287375    1.866353    0.308592
 C     -3.217813    0.907599   -0.277176
 C     -4.132241   -1.234496    0.088558
 C     -0.048664    2.230874    0.966220
 C     -0.424730    3.425137    1.569680
 C     -2.687072    3.046350    0.879707
 C     -1.735498    3.836546    1.522726
 C     -4.171347    1.207720   -1.211252
 C     -5.112610    0.230684   -1.537366
 C     -5.109460   -0.967661   -0.865981
 H     -3.732873    3.324454    0.848560
 H     -2.031466    4.768285    1.996870
 H     -4.181646    2.189573   -1.667814
 H     -5.870451    0.432089   -2.289089
 H     -5.862169   -1.725093   -1.050205
 N     -0.994712    1.500212    0.359636
 N     -3.176390   -0.317906    0.286091
 H      0.341501    4.008881    2.066304
 Cl    -4.154711   -2.608264    1.037642
 Cl     1.513041    1.665454    0.937553
