45

 Si     1.253138   -1.377849    1.310253
 O      0.071125   -1.958586    0.388568
 C     -1.296522   -2.096008    0.482607
 C     -1.950173   -0.937020   -0.222435
 H     -1.598100   -2.109219    1.532890
 C     -1.274230   -0.304734   -1.250473
 C     -3.233258   -0.523022    0.106661
 C     -1.865169    0.736774   -1.945461
 H     -0.279132   -0.634748   -1.493918
 C     -3.831352    0.518250   -0.585876
 H     -3.768717   -1.015636    0.911146
 C     -3.148847    1.150623   -1.615697
 H     -1.326124    1.220035   -2.754744
 H     -4.835606    0.836262   -0.319300
 H     -3.619188    1.963460   -2.162072
 C     -1.682713   -3.407965   -0.160921
 C     -1.069710   -4.548661    0.536414
 H     -1.346028   -3.399436   -1.199502
 H     -2.772323   -3.530911   -0.157914
 C     -0.561998   -5.465983    1.120864
 H     -0.123828   -6.289121    1.633547
 Cl     0.690215   -2.160690    3.109276
 Cl     3.160954   -2.019264    1.353127
 O      1.578091   -0.515779   -0.300568
 O      1.132329    0.240253    1.868636
 C      2.316063    1.594052   -0.056296
 C      0.931703    1.880463    0.304626
 C     -0.886719    1.296366    1.690444
 C      3.678177   -0.031119   -1.076858
 C      4.715937    0.894040   -1.141720
 C      3.310231    2.534824   -0.116602
 C      4.548712    2.161222   -0.636183
 C      0.204038    2.876030   -0.289362
 C     -1.116352    3.073306    0.107728
 C     -1.650777    2.293415    1.101388
 H      3.114406    3.540426    0.234166
 H      5.363827    2.877868   -0.677943
 H      0.662771    3.480064   -1.061451
 H     -1.715936    3.849057   -0.358767
 H     -2.663224    2.435353    1.455923
 N      2.544662    0.328525   -0.461202
 N      0.363622    1.103954    1.245282
 H      5.643936    0.585055   -1.608266
 Cl    -1.440571    0.389565    2.967607
 Cl     3.772658   -1.533489   -1.807621
