45

 Si    -0.079003   -1.326830   -0.553021
 O      0.777136   -0.010567   -0.193253
 C      1.847449    0.452552    0.546258
 C      3.150793   -0.078813    0.023567
 H      1.835117    1.542186    0.404184
 C      4.351488    0.239351    0.646619
 C      3.170912   -0.860299   -1.118232
 C      5.551685   -0.231247    0.138788
 H      4.356262    0.862807    1.532703
 C      4.366747   -1.334856   -1.630566
 H      2.249444   -1.107058   -1.615415
 C      5.562875   -1.023777   -1.000971
 H      6.482888    0.023248    0.637091
 H      4.359841   -1.951182   -2.524617
 H      6.502931   -1.395756   -1.398153
 C      1.629069    0.169326    2.014585
 C      0.299239    0.608753    2.465508
 H      2.386379    0.687459    2.612160
 H      1.716358   -0.898544    2.204682
 C     -0.782463    0.952801    2.857200
 H     -1.715984    1.248398    3.266841
 Cl    -0.111307   -2.413496   -2.247872
 Cl     0.868159   -2.693630    0.620254
 O     -1.433637   -1.315789    0.483228
 O     -1.085606   -0.174674   -1.509792
 C     -3.232930   -0.096322   -0.182046
 C     -2.351049    1.063346   -0.115025
 C     -0.461905    1.994912   -1.173674
 C     -3.305702   -2.459141   -0.128007
 C     -4.644834   -2.420258   -0.502583
 C     -4.553088   -0.025188   -0.537630
 C     -5.268723   -1.212129   -0.698876
 C     -2.589816    2.214373    0.583179
 C     -1.697013    3.274377    0.433012
 C     -0.654692    3.170245   -0.455551
 H     -5.004273    0.942685   -0.716324
 H     -6.313960   -1.181191   -0.994278
 H     -3.453091    2.277833    1.233539
 H     -1.844207    4.194238    0.991945
 H      0.022393    3.996834   -0.636044
 N     -2.659415   -1.296559    0.022937
 N     -1.279707    0.972086   -0.924202
 H     -5.168306   -3.360873   -0.628408
 Cl     0.678988    1.857111   -2.380318
 Cl    -2.475441   -3.876743    0.146576
