45

 Si     1.061300   -1.777820    0.799685
 O     -0.374028   -1.170015    1.215055
 C     -1.695468   -1.519710    0.964483
 C     -2.189077   -0.536835   -0.057763
 H     -1.720195   -2.519128    0.526588
 C     -3.206601    0.372856    0.170453
 C     -1.541120   -0.534033   -1.286245
 C     -3.577365    1.274725   -0.818903
 H     -3.728028    0.382972    1.118733
 C     -1.900080    0.363914   -2.273020
 H     -0.755499   -1.250943   -1.464579
 C     -2.924186    1.274989   -2.040907
 H     -4.382911    1.978778   -0.629123
 H     -1.389650    0.346716   -3.231441
 H     -3.216143    1.978472   -2.815769
 C     -2.439355   -1.556704    2.272221
 C     -1.791198   -2.498338    3.196795
 H     -3.477997   -1.868683    2.109925
 H     -2.450414   -0.569011    2.730622
 C     -1.235540   -3.266514    3.932611
 H     -0.760835   -3.953737    4.592306
 Cl     2.529906   -2.421282    2.010590
 Cl     0.464571   -3.586643    0.066296
 O      1.434456   -1.256929   -0.788248
 O      1.669712   -0.129897    1.222630
 C      2.379890    0.793289   -1.022876
 C      1.153301    1.314714   -0.432429
 C     -0.022779    1.352246    1.608057
 C      3.612089   -1.178167   -1.453813
 C      4.697050   -0.404967   -1.853074
 C      3.424375    1.581525   -1.426120
 C      4.602828    0.965990   -1.848787
 C      0.360831    2.292079   -0.965425
 C     -0.685923    2.788223   -0.191503
 C     -0.860596    2.334154    1.091245
 H      3.326510    2.658801   -1.380439
 H      5.450364    1.570140   -2.160948
 H      0.561157    2.659690   -1.963823
 H     -1.339859    3.557171   -0.589294
 H     -1.629580    2.739694    1.736670
 N      2.499601   -0.545746   -1.060822
 N      0.907698    0.839883    0.803859
 H      5.600884   -0.914493   -2.166205
 Cl    -0.070906    0.882424    3.203786
 Cl     3.628811   -2.843851   -1.451054
