45

 Si     0.672836   -1.179618    1.733401
 O     -0.741217   -0.428519    1.598416
 C     -2.059596   -0.432864    1.182275
 C     -2.080729   -0.293243   -0.312967
 H     -2.510312    0.460696    1.625581
 C     -1.231914   -1.068557   -1.083260
 C     -2.913494    0.624976   -0.935080
 C     -1.183138   -0.910498   -2.456303
 H     -0.607065   -1.798806   -0.601086
 C     -2.881827    0.779387   -2.313502
 H     -3.593998    1.226391   -0.342032
 C     -2.008429    0.018443   -3.077065
 H     -0.507952   -1.524438   -3.044890
 H     -3.539929    1.500128   -2.791082
 H     -1.977866    0.142076   -4.156142
 C     -2.832956   -1.627706    1.680675
 C     -2.765250   -1.708612    3.147642
 H     -2.436184   -2.544188    1.248297
 H     -3.881436   -1.527984    1.373435
 C     -2.690207   -1.748674    4.344910
 H     -2.639465   -1.804557    5.406368
 Cl     1.771229   -1.327641    3.407434
 Cl     0.064450   -3.121962    1.596534
 O      1.399249   -1.334570    0.190832
 O      1.377732    0.482875    1.611715
 C      2.508843    0.450385   -0.659400
 C      1.249807    1.174681   -0.534639
 C     -0.186166    2.063747    1.107133
 C      3.655587   -1.520098   -0.033313
 C      4.841696   -0.975878   -0.513939
 C      3.656943    1.006688   -1.157920
 C      4.842208    0.274881   -1.083822
 C      0.630958    1.879366   -1.529823
 C     -0.454510    2.682926   -1.192037
 C     -0.838476    2.794206    0.121569
 H      3.629433    2.009685   -1.564631
 H      5.768492    0.700726   -1.459793
 H      0.999801    1.808166   -2.545042
 H     -0.972805    3.248996   -1.959268
 H     -1.643498    3.452841    0.423659
 N      2.540189   -0.787381   -0.136207
 N      0.789738    1.237535    0.729669
 H      5.747222   -1.565105   -0.427714
 Cl    -0.521190    2.246132    2.728450
 Cl     3.553196   -3.035031    0.652963
