45

 Si    -1.083273    1.229736    1.735371
 O     -0.009944    2.019305    0.825144
 C      0.175137    2.184435   -0.541575
 C      1.197235    1.187771   -0.997544
 H     -0.756732    1.991469   -1.066873
 C      2.502786    1.273486   -0.540280
 C      0.841918    0.149784   -1.843182
 C      3.451254    0.347268   -0.939169
 H      2.779090    2.075558    0.130240
 C      1.784406   -0.785261   -2.244092
 H     -0.176460    0.076926   -2.198889
 C      3.093752   -0.684213   -1.797849
 H      4.473248    0.434078   -0.581826
 H      1.497358   -1.587837   -2.917747
 H      3.837944   -1.406959   -2.120653
 C      0.567723    3.622907   -0.778914
 C     -0.540865    4.519931   -0.412758
 H      0.826614    3.784328   -1.832629
 H      1.439978    3.865912   -0.171359
 C     -1.465109    5.222606   -0.107076
 H     -2.271638    5.863926    0.158929
 Cl    -0.645466    2.209181    3.464342
 Cl    -3.085436    1.431238    1.842513
 O     -1.253691    0.226811    0.203870
 O     -0.544237   -0.276646    2.349463
 C     -1.605660   -1.955271    0.617664
 C     -0.172289   -1.971556    0.882126
 C      1.627433   -0.815897    1.879653
 C     -3.245353   -0.659424   -0.468207
 C     -4.119663   -1.740306   -0.419628
 C     -2.435402   -3.043350    0.674080
 C     -3.733374   -2.915660    0.180164
 C      0.678456   -2.864918    0.290699
 C      2.048562   -2.726404    0.501387
 C      2.516083   -1.702539    1.284868
 H     -2.067141   -3.973561    1.088746
 H     -4.421524   -3.754635    0.229053
 H      0.275663   -3.639440   -0.349087
 H      2.744303   -3.417737    0.035436
 H      3.573740   -1.560402    1.466231
 N     -2.054246   -0.780638    0.128781
 N      0.318328   -0.989727    1.659934
 H     -5.097864   -1.625700   -0.871520
 Cl     2.125147    0.414077    2.877605
 Cl    -3.590792    0.747350   -1.305439
