45

 Si    -0.604902   -1.090401    0.304788
 O      1.160405   -0.920112   -0.157318
 C      1.964497   -1.767185   -0.530567
 C      3.368581   -1.491634   -0.763180
 H      1.621301   -2.792918   -0.693762
 C      3.882095   -0.221900   -0.494756
 C      4.201494   -2.502455   -1.240728
 C      5.217547    0.038779   -0.706757
 H      3.212705    0.535725   -0.113502
 C      5.544346   -2.239260   -1.456800
 H      3.795356   -3.489302   -1.440893
 C      6.047104   -0.973426   -1.190685
 H      5.625462    1.022790   -0.497005
 H      6.199856   -3.020437   -1.829885
 H      7.101848   -0.768201   -1.358665
 C      2.160824    0.395038    2.854781
 C      0.975212    0.115065    2.382580
 H      2.608041    1.374044    2.710360
 H      2.706289   -0.343940    3.436257
 C     -0.205721   -0.168624    1.901149
 H     -1.031267    0.013645    2.583633
 Cl    -1.003541   -1.869760   -1.618668
 Cl    -0.409335   -2.974050    1.173572
 O     -2.315678   -0.895140    0.766120
 O     -0.853736    0.477857   -0.593969
 C     -3.424095    0.625060   -0.469074
 C     -2.611261    1.612036    0.238979
 C     -0.424424    2.447125    0.481766
 C     -3.948397   -1.669064   -0.636390
 C     -4.897056   -1.370766   -1.610059
 C     -4.357521    0.953368   -1.414065
 C     -5.092398   -0.072151   -2.009309
 C     -3.130855    2.642889    0.977519
 C     -2.258485    3.583787    1.520183
 C     -0.913162    3.497686    1.248850
 H     -4.501093    1.991806   -1.684027
 H     -5.829710    0.157885   -2.773130
 H     -4.202209    2.704711    1.122851
 H     -2.642074    4.400841    2.124482
 H     -0.210251    4.240575    1.606553
 N     -3.222302   -0.663171   -0.135318
 N     -1.278856    1.506823    0.064200
 H     -5.471542   -2.188717   -2.027991
 Cl     1.169767    2.363028   -0.012127
 Cl    -3.722861   -3.207950   -0.039994
