51

 Si    -0.345049   -1.106164    1.261426
 O      1.259013   -1.241254    1.592900
 C      2.326455   -1.594683    0.773628
 C      2.335617   -0.615419   -0.368431
 H      2.155617   -2.596428    0.371944
 C      2.852455    0.658357   -0.219379
 C      1.624700   -0.920683   -1.518131
 C      2.613170    1.634335   -1.170413
 H      3.441671    0.899601    0.653557
 C      1.384514    0.045868   -2.477048
 H      1.237487   -1.921347   -1.653900
 C      1.861668    1.334663   -2.296643
 H      3.023592    2.631163   -1.036491
 H      0.831113   -0.211529   -3.374868
 H      1.677620    2.097989   -3.047592
 C      3.574190   -1.619984    1.616945
 C      3.488333   -2.668211    2.646514
 H      4.457514   -1.804468    0.992647
 H      3.703065   -0.655531    2.108824
 C      3.404577   -3.530949    3.477063
 H      3.352425   -4.294643    4.216117
 Cl    -0.964027   -0.996816    3.170635
 Cl    -0.559866   -2.857089    0.278480
 O      0.096169    0.301443    0.400931
 O     -1.990973   -0.544693    0.815088
 C     -1.476617    1.652395   -0.493836
 C     -1.960709    0.486093   -1.224367
 C     -3.081232   -1.575807   -0.924707
 C     -0.100418    2.374216    1.294113
 C     -0.652743    3.644554    1.193120
 C     -2.033006    2.903165   -0.622912
 C     -1.603320    3.915681    0.228438
 C     -2.195420    0.469392   -2.573787
 C     -2.860489   -0.625410   -3.124411
 C     -3.330342   -1.618185   -2.295091
 H     -2.813791    3.065049   -1.354935
 H     -2.035578    4.909809    0.151991
 H     -1.868512    1.305907   -3.177981
 H     -3.041391   -0.671617   -4.194727
 H     -3.905046   -2.452607   -2.680936
 C     -3.652286   -2.558139    0.037519
 N     -0.522379    1.444542    0.423526
 N     -2.336428   -0.563066   -0.456240
 C      0.910141    1.954040    2.293292
 H     -0.320580    4.407791    1.887284
 H      1.747813    1.493880    1.786869
 H      1.236730    2.809756    2.879086
 H      0.472769    1.202210    2.945688
 H     -3.313999   -3.564435   -0.203733
 H     -3.363041   -2.302004    1.046535
 H     -4.741179   -2.530734   -0.053604
