51

 Si     1.015910   -1.405313    1.092754
 O     -0.188875   -1.914053    0.151361
 C     -1.558765   -2.040671    0.237786
 C     -2.195846   -0.774648   -0.272357
 H     -1.853889   -2.213608    1.276695
 C     -1.544174   -0.043163   -1.250915
 C     -3.433539   -0.348593    0.187898
 C     -2.117544    1.104276   -1.770553
 H     -0.580322   -0.380861   -1.593017
 C     -4.013153    0.801480   -0.328186
 H     -3.950572   -0.918220    0.953321
 C     -3.357575    1.529289   -1.310857
 H     -1.599744    1.664515   -2.543159
 H     -4.983097    1.127433    0.037697
 H     -3.814436    2.426356   -1.719510
 C     -1.970930   -3.235533   -0.592244
 C     -1.362445   -4.473608   -0.081150
 H     -3.062061   -3.346017   -0.591299
 H     -1.648331   -3.075040   -1.622871
 C     -0.857311   -5.471041    0.355825
 H     -0.423364   -6.365059    0.736504
 Cl     0.396271   -2.255809    2.857190
 Cl     2.866278   -2.213516    1.093870
 O      1.380583   -0.480525   -0.433195
 O      0.989300    0.159641    1.791398
 C      2.305122    1.541472   -0.060883
 C      0.958069    1.930065    0.349252
 C     -0.905152    1.434584    1.725196
 C      3.520300   -0.133929   -1.200494
 C      4.625481    0.715118   -1.230121
 C      3.375182    2.399080   -0.078543
 C      4.570749    1.960899   -0.646029
 C      0.331634    3.041827   -0.157272
 C     -0.952142    3.348701    0.279776
 C     -1.558985    2.551193    1.224830
 H      3.268553    3.391589    0.340870
 H      5.439796    2.612732   -0.658780
 H      0.844932    3.649564   -0.891029
 H     -1.468622    4.218099   -0.116822
 H     -2.548576    2.777345    1.600328
 C     -1.440309    0.570580    2.803583
 N      2.426883    0.290996   -0.552111
 N      0.318271    1.154797    1.242082
 C      3.478310   -1.448169   -1.898765
 H      5.521483    0.364145   -1.729735
 H      2.474397   -1.848588   -1.868138
 H      3.790255   -1.301042   -2.935145
 H      4.168271   -2.148913   -1.430799
 H     -1.437911   -0.463411    2.487598
 H     -0.791121    0.647781    3.674823
 H     -2.447240    0.885773    3.063342
