51

 Si     0.790443   -1.782596    0.451705
 O     -0.613886   -1.226893    1.025969
 C     -1.956129   -1.440940    0.725418
 C     -2.351781   -0.363205   -0.246017
 H     -2.056352   -2.411340    0.234362
 C     -3.265339    0.636589    0.039948
 C     -1.715357   -0.360494   -1.480485
 C     -3.537611    1.629742   -0.892362
 H     -3.784477    0.649533    0.989096
 C     -1.971481    0.629937   -2.408832
 H     -1.016942   -1.148423   -1.709475
 C     -2.887433    1.633470   -2.115820
 H     -4.263443    2.402907   -0.656107
 H     -1.465608    0.612939   -3.369624
 H     -3.099035    2.411144   -2.844536
 C     -2.726501   -1.477307    2.020147
 C     -2.138524   -2.464250    2.937796
 H     -3.775378   -1.736441    1.831093
 H     -2.709395   -0.500891    2.504272
 C     -1.624195   -3.260894    3.673616
 H     -1.189696   -3.973228    4.334893
 Cl     2.252641   -2.680011    1.512496
 Cl     0.104300   -3.451287   -0.522170
 O      1.142747   -1.079443   -1.059516
 O      1.475081   -0.257486    1.096922
 C      2.073385    0.998267   -1.046923
 C      0.908356    1.441664   -0.286106
 C     -0.095589    1.223951    1.845241
 C      3.267000   -0.888903   -1.851438
 C      4.318169   -0.056205   -2.215489
 C      3.092049    1.844136   -1.412619
 C      4.229795    1.305269   -2.007446
 C      0.122789    2.520037   -0.599944
 C     -0.819457    2.943705    0.330976
 C     -0.903638    2.316336    1.555373
 H      3.003342    2.902383   -1.202862
 H      5.052501    1.955812   -2.292299
 H      0.257747    3.020770   -1.549895
 H     -1.460627    3.790438    0.106720
 H     -1.591200    2.664531    2.316833
 C     -0.038070    0.525342    3.150985
 N      2.189891   -0.317729   -1.289604
 N      0.734050    0.802176    0.884981
 C      3.234545   -2.362017   -2.036017
 H      5.197071   -0.501779   -2.666989
 H      2.343200   -2.639401   -2.593657
 H      4.128505   -2.692557   -2.559607
 H      3.176146   -2.838866   -1.059459
 H     -0.411246   -0.482847    3.041782
 H      0.998958    0.468365    3.473658
 H     -0.624318    1.065990    3.891015
