51

 Si    -0.056006   -0.181921    1.824138
 O     -1.177914    0.826628    1.236705
 C     -2.326313    0.717145    0.442524
 C     -2.063509   -0.335208   -0.593161
 H     -2.409432    1.685586   -0.062927
 C     -1.380309    0.039761   -1.737478
 C     -2.358734   -1.672961   -0.399795
 C     -0.941511   -0.904144   -2.647852
 H     -1.203461    1.086058   -1.921675
 C     -1.924153   -2.626413   -1.303105
 H     -2.919651   -1.983229    0.468214
 C     -1.198989   -2.247444   -2.422270
 H     -0.415568   -0.594049   -3.545037
 H     -2.158087   -3.672823   -1.131135
 H     -0.858834   -2.996666   -3.131807
 C     -3.552346    0.537915    1.297231
 C     -3.677727    1.667507    2.233351
 H     -4.447252    0.491905    0.664205
 H     -3.484249   -0.386684    1.866379
 C     -3.749790    2.599882    2.986449
 H     -3.845395    3.416340    3.662579
 Cl     1.111215   -0.117470    3.480549
 Cl    -1.298754   -1.631613    2.561447
 O      0.432132   -1.114463    0.485976
 O      1.133996    1.000320    1.225448
 C      2.307406   -0.369353   -0.584883
 C      1.555428    0.819213   -0.978210
 C      0.402177    2.699955   -0.120232
 C      2.320520   -2.370570    0.688857
 C      3.646528   -2.580042    0.330901
 C      3.615430   -0.561969   -0.959246
 C      4.294757   -1.682427   -0.491145
 C      1.525442    1.324203   -2.254448
 C      0.887247    2.540539   -2.471885
 C      0.337326    3.224253   -1.407078
 H      4.098206    0.175344   -1.587259
 H      5.333560   -1.843006   -0.766970
 H      1.990306    0.768500   -3.058356
 H      0.837154    2.958017   -3.473889
 H     -0.136476    4.189504   -1.544668
 C     -0.064266    3.398267    1.101808
 N      1.709312   -1.271123    0.215708
 N      0.979399    1.500541    0.028340
 C      1.527200   -3.277199    1.554869
 H      4.149582   -3.460814    0.712694
 H      0.606081   -3.549406    1.046397
 H      2.107885   -4.165832    1.790425
 H      1.260861   -2.752714    2.469463
 H     -0.279394    4.440681    0.874252
 H     -0.950718    2.906455    1.483979
 H      0.709686    3.335024    1.861627
