51

 Si    -0.955494    1.387138    1.431337
 O      0.453383    1.785301    0.740570
 C      0.898340    1.890800   -0.571851
 C      1.788718    0.719678   -0.858300
 H      0.051608    1.851509   -1.252021
 C      3.016562    0.599227   -0.224286
 C      1.376509   -0.274260   -1.731402
 C      3.834676   -0.489541   -0.474554
 H      3.338834    1.368918    0.464272
 C      2.190877   -1.367512   -1.988730
 H      0.416489   -0.188698   -2.222816
 C      3.424712   -1.474416   -1.364770
 H      4.798589   -0.565978    0.020643
 H      1.863902   -2.132798   -2.687014
 H      4.069643   -2.323972   -1.571730
 C      1.567383    3.236196   -0.726273
 C      0.581158    4.314180   -0.542650
 H      2.021839    3.330487   -1.720224
 H      2.354439    3.340603    0.021188
 C     -0.250652    5.165932   -0.387629
 H     -0.971722    5.936787   -0.252059
 Cl    -0.541575    2.295463    3.216783
 Cl    -2.795766    2.192615    1.219947
 O     -1.192910    0.443126   -0.111865
 O     -0.893610   -0.169319    2.127163
 C     -2.042743   -1.611506    0.254229
 C     -0.687032   -1.922378    0.694659
 C      1.161860   -1.174419    1.972130
 C     -3.275024   -0.015897   -0.977955
 C     -4.342838   -0.911972   -1.028090
 C     -3.073931   -2.512542    0.217432
 C     -4.263413   -2.137834   -0.407534
 C      0.028279   -2.983300    0.203616
 C      1.349037   -3.144219    0.611998
 C      1.908878   -2.239644    1.485319
 H     -2.941030   -3.490454    0.663124
 H     -5.104399   -2.824922   -0.437554
 H     -0.437404   -3.656484   -0.504363
 H      1.937299   -3.974951    0.233476
 H      2.935203   -2.338090    1.814626
 C      1.668062   -0.164255    2.928113
 N     -2.194477   -0.375239   -0.271782
 N     -0.109536   -1.070754    1.558880
 C     -3.263979    1.273475   -1.722700
 H     -5.230021   -0.612192   -1.574559
 H     -2.294733    1.742800   -1.639019
 H     -3.487468    1.067443   -2.772170
 H     -4.030668    1.942729   -1.335528
 H      1.622315    0.812277    2.459385
 H      1.031983   -0.145341    3.809678
 H      2.689848   -0.403798    3.210860
