51

 Si     0.536250   -1.511780    1.225200
 O     -0.716895   -1.358536    0.231886
 C     -2.091322   -1.439105    0.157972
 C     -2.567811   -0.131308   -0.409181
 H     -2.517102   -1.602154    1.151982
 C     -1.828709    0.442009   -1.433113
 C     -3.699510    0.514952    0.062590
 C     -2.213106    1.650089   -1.986907
 H     -0.943216   -0.067806   -1.782470
 C     -4.089190    1.729320   -0.487678
 H     -4.282426    0.072532    0.863998
 C     -3.348429    2.298228   -1.512839
 H     -1.631705    2.085883   -2.794126
 H     -4.977818    2.230344   -0.113093
 H     -3.657318    3.245717   -1.945998
 C     -2.457563   -2.606541   -0.731464
 C     -1.907188   -3.865618   -0.205005
 H     -3.547205   -2.696666   -0.818053
 H     -2.051752   -2.432066   -1.729615
 C     -1.439717   -4.876538    0.242942
 H     -1.038980   -5.779748    0.637788
 Cl    -0.471535   -2.097456    2.916168
 Cl     1.981375   -2.917200    1.383735
 O      1.346425   -0.886954   -0.293496
 O      0.980216    0.006093    1.877613
 C      2.702992    0.860581    0.095533
 C      1.449129    1.580643    0.302340
 C     -0.581195    1.655103    1.518538
 C      3.588016   -1.148811   -0.773612
 C      4.865776   -0.593854   -0.691427
 C      3.943862    1.434864    0.179206
 C      5.053438    0.673871   -0.189791
 C      1.130716    2.728033   -0.377182
 C     -0.087386    3.347225   -0.111089
 C     -0.927825    2.816681    0.841057
 H      4.035698    2.458154    0.521294
 H      6.052636    1.093989   -0.116534
 H      1.826715    3.123223   -1.105914
 H     -0.365949    4.251979   -0.643871
 H     -1.870413    3.289172    1.084296
 C     -1.386312    1.060412    2.608747
 N      2.565405   -0.422232   -0.303110
 N      0.582985    1.070161    1.195058
 C      3.311403   -2.464229   -1.413649
 H      5.700253   -1.190860   -1.042094
 H      2.246457   -2.583990   -1.559806
 H      3.827594   -2.496922   -2.375471
 H      3.690056   -3.276439   -0.794722
 H     -1.662659    0.048869    2.347365
 H     -0.783745    1.015476    3.514105
 H     -2.273417    1.663210    2.781896
