51

 Si    -0.366525   -1.001639    0.390028
 O      1.395454   -0.715424   -0.113209
 C      2.253470   -1.538528   -0.419187
 C      3.638654   -1.209764   -0.693142
 H      1.974494   -2.593966   -0.482467
 C      4.094182    0.103982   -0.565386
 C      4.516715   -2.224702   -1.073359
 C      5.415111    0.401107   -0.817948
 H      3.397871    0.871380   -0.258468
 C      5.844295   -1.924755   -1.331009
 H      4.156462   -3.244738   -1.165950
 C      6.288918   -0.616499   -1.202564
 H      5.776834    1.419851   -0.717571
 H      6.532519   -2.709986   -1.629077
 H      7.331869   -0.381061   -1.401719
 C      2.265463    1.066184    2.700154
 C      1.121382    0.565344    2.312922
 H      2.538199    2.094376    2.480107
 H      2.953831    0.468529    3.292525
 C     -0.013990    0.059951    1.912630
 H     -0.832840    0.159826    2.621550
 Cl    -0.678521   -1.996449   -1.456200
 Cl     0.018356   -2.791784    1.409463
 O     -2.072495   -0.957681    0.868018
 O     -0.751830    0.440503   -0.623121
 C     -3.345178    0.348398   -0.465403
 C     -2.617084    1.476868    0.115657
 C     -0.507992    2.533960    0.266395
 C     -3.675566   -1.994955   -0.393999
 C     -4.683329   -1.866941   -1.343612
 C     -4.340120    0.503517   -1.397741
 C     -5.005879   -0.629367   -1.857738
 C     -3.235527    2.531201    0.742679
 C     -2.459340    3.602959    1.172478
 C     -1.104296    3.610716    0.911906
 H     -4.582277    1.495534   -1.756605
 H     -5.788167   -0.534210   -2.605728
 H     -4.307852    2.504890    0.889995
 H     -2.923205    4.440192    1.686684
 H     -0.481327    4.451608    1.193726
 C      0.908221    2.483943   -0.171020
 N     -3.023809   -0.881282   -0.025607
 N     -1.281768    1.486625   -0.054766
 C     -3.294799   -3.264953    0.272489
 H     -5.206084   -2.761625   -1.660604
 H     -3.411538   -3.148062    1.348449
 H     -3.925339   -4.075616   -0.085342
 H     -2.249786   -3.476499    0.072433
 H      1.301276    1.493925   -0.010398
 H      0.947293    2.696263   -1.241125
 H      1.495594    3.228855    0.359777
