51

 Si    -0.660156   -0.579375    1.882404
 O      0.043680    0.858911    1.961263
 C      0.267015    1.972705    1.164923
 C      1.445377    1.671822    0.295125
 H     -0.583269    2.145589    0.525810
 C      2.738734    1.757756    0.778643
 C      1.233121    1.199562   -0.988913
 C      3.809085    1.355589    0.000280
 H      2.915026    2.119951    1.781195
 C      2.298409    0.799624   -1.776021
 H      0.228783    1.153833   -1.375799
 C      3.590703    0.868631   -1.278528
 H      4.817059    1.417416    0.397629
 H      2.122116    0.451120   -2.788567
 H      4.431219    0.556996   -1.891670
 C      0.422642    3.154191    2.082151
 C     -0.834737    3.424637    2.795127
 H      0.709958    4.048267    1.515188
 H      1.204321    2.945583    2.812497
 C     -1.868504    3.635339    3.367165
 H     -2.776292    3.841489    3.882000
 Cl     0.104385   -1.265385    3.625867
 Cl    -2.585895   -1.026233    2.273690
 O     -1.007481   -0.066688    0.185119
 O     -0.031965   -1.941788    1.045582
 C     -1.791501   -1.801854   -1.027840
 C     -0.387794   -2.152931   -1.204851
 C      1.760485   -2.063938   -0.300083
 C     -3.159860    0.001738   -0.436751
 C     -4.266842   -0.610624   -0.964567
 C     -2.877310   -2.469302   -1.564755
 C     -4.129635   -1.884621   -1.499834
 C      0.143437   -2.464585   -2.445339
 C      1.510893   -2.586850   -2.597440
 C      2.336250   -2.359251   -1.506494
 H     -2.722392   -3.437290   -2.026484
 H     -4.994168   -2.402692   -1.904813
 H     -0.531557   -2.577242   -3.285146
 H      1.934801   -2.825049   -3.568863
 H      3.415116   -2.401305   -1.572848
 N     -1.980170   -0.621382   -0.429731
 N      0.433116   -2.002517   -0.161490
 H     -5.212211   -0.083959   -0.956124
 C     -3.085514    1.451189    0.004490
 C      2.529648   -1.767941    0.970431
 F      2.380941   -2.763487    1.793245
 F      3.792333   -1.594049    0.678614
 F      2.028624   -0.673586    1.459271
 F     -2.601359    1.573982    1.196360
 F     -4.280475    1.982635   -0.064287
 F     -2.278190    2.035364   -0.856833
