51

 Si     0.986070   -1.329062   -1.218739
 O     -1.628795   -2.566271   -0.360410
 C     -2.585429   -2.338209    0.336104
 C     -3.632875   -1.319778    0.065388
 H     -2.746413   -2.878621    1.284845
 C     -3.728924   -0.722359   -1.184649
 C     -4.495594   -0.934803    1.082984
 C     -4.674184    0.255277   -1.416657
 H     -3.055757   -1.041077   -1.968143
 C     -5.438999    0.053195    0.857096
 H     -4.423975   -1.403174    2.058806
 C     -5.529252    0.645606   -0.392126
 H     -4.755815    0.711425   -2.398324
 H     -6.107566    0.357598    1.656373
 H     -6.275568    1.414249   -0.572886
 C      1.103734   -3.997235    1.571312
 C      0.997859   -2.797738    1.079950
 H      2.073796   -4.391194    1.863889
 H      0.215934   -4.612374    1.693916
 C      0.899752   -1.592895    0.572322
 H      0.720657   -0.743570    1.219013
 Cl    -0.424298   -0.204962   -2.103036
 Cl     1.303513   -2.912857   -2.396633
 O      0.709761    1.210691    1.506340
 O      2.357769   -0.304026   -1.430509
 C      1.474289    2.011494   -0.445705
 C      2.729481    1.431758    0.024077
 C      4.158065   -0.423611   -0.023258
 C     -0.791443    2.157038    0.085819
 C     -1.031730    2.859733   -1.072421
 C      1.273746    2.696351   -1.622712
 C      0.008115    3.160987   -1.933504
 C      3.505707    2.012530    1.009380
 C      4.621290    1.353404    1.483446
 C      4.955431    0.115262    0.950172
 H      2.120058    2.853694   -2.281666
 H     -0.170508    3.716472   -2.846957
 H      3.203208    2.977562    1.395284
 H      5.232922    1.797670    2.263632
 H      5.826021   -0.437521    1.276767
 N      0.460261    1.775780    0.432972
 N      3.060455    0.222114   -0.447937
 H     -2.051674    3.151474   -1.285310
 C     -1.868209    1.661035    1.016959
 C      4.439021   -1.762647   -0.676104
 F      4.512251   -1.604486   -1.967324
 F      5.567514   -2.242323   -0.212422
 F      3.456445   -2.568616   -0.363576
 F     -1.742935    0.362583    1.150339
 F     -3.049362    1.920813    0.498180
 F     -1.763818    2.243615    2.185643
