51

 Si     0.199368   -2.202012    0.933907
 O     -0.183979   -0.658132    0.994245
 C      0.145451    0.281791    1.995607
 C      1.133669    1.235665    1.407652
 H      0.636823   -0.263390    2.803691
 C      0.742750    2.346783    0.679151
 C      2.486862    0.973369    1.576406
 C      1.693925    3.195807    0.136014
 H     -0.306989    2.550689    0.531762
 C      3.442181    1.808344    1.023289
 H      2.797667    0.112589    2.152291
 C      3.045935    2.928316    0.306681
 H      1.375916    4.072176   -0.421191
 H      4.496648    1.587973    1.160647
 H      3.791241    3.594179   -0.120054
 C     -1.127015    0.876873    2.521989
 C     -1.961250   -0.179218    3.111375
 H     -1.667188    1.354836    1.714359
 H     -0.899935    1.626918    3.288723
 C     -2.611706   -1.074955    3.574325
 H     -3.194020   -1.857637    3.999483
 Cl     1.369795   -2.853391    2.387886
 Cl    -1.343909   -3.437035    0.768435
 O     -1.743488    1.008129   -0.472758
 O      0.926553   -2.203027   -0.589845
 C     -1.197300   -0.879331   -1.560205
 C      0.137051   -0.316624   -1.649221
 C      2.429553   -0.613198   -1.270441
 C     -3.374645   -0.525714   -0.812003
 C     -3.777866   -1.713335   -1.375921
 C     -1.566763   -2.074486   -2.144347
 C     -2.874692   -2.504367   -2.064565
 C      0.392719    0.904038   -2.245663
 C      1.687765    1.354342   -2.360206
 C      2.728744    0.571428   -1.875992
 H     -0.805651   -2.648133   -2.657331
 H     -3.184925   -3.435513   -2.524078
 H     -0.446522    1.471454   -2.620263
 H      1.896815    2.304711   -2.841047
 H      3.764120    0.868591   -1.961533
 N     -2.095324   -0.084736   -0.914534
 N      1.157095   -1.019542   -1.152274
 H     -4.818211   -1.993594   -1.272609
 C     -4.309800    0.421471   -0.100836
 C      3.476147   -1.552028   -0.712223
 F      3.373688   -2.704238   -1.321068
 F      4.666745   -1.040213   -0.900118
 F      3.250092   -1.691555    0.566431
 F     -3.861346    0.655671    1.107383
 F     -5.507634   -0.124322   -0.023282
 F     -4.385161    1.543581   -0.778125
