51

 Si    -0.213144   -0.371980    1.694094
 O      0.731084   -1.248439    0.744198
 C      1.400458   -1.178164   -0.460446
 C      2.832049   -1.523331   -0.223142
 H      1.350703   -0.182920   -0.866505
 C      3.147510   -2.519111    0.686166
 C      3.844593   -0.842031   -0.880962
 C      4.470989   -2.832550    0.946087
 H      2.349480   -3.036101    1.200186
 C      5.171498   -1.155339   -0.627873
 H      3.600498   -0.065899   -1.595890
 C      5.486357   -2.149665    0.287239
 H      4.711092   -3.610860    1.664564
 H      5.961810   -0.619518   -1.145984
 H      6.525667   -2.393973    0.488633
 C      0.712570   -2.091916   -1.444604
 C     -0.490370   -1.453411   -2.000805
 H      0.457887   -3.031039   -0.957980
 H      1.376397   -2.314549   -2.287907
 C     -1.429126   -0.885084   -2.488768
 H     -2.235304   -0.410862   -2.987080
 Cl     0.346483    1.125393    2.920563
 Cl    -0.402209   -1.798738    3.119897
 O     -0.320993    0.682930    0.233677
 O     -1.919378   -0.238647    1.581454
 C     -1.887982    2.281837    0.533753
 C     -2.842435    1.260573    0.117794
 C     -3.301004   -1.026123    0.001046
 C      0.396694    2.792213    0.484789
 C      0.152269    4.103130    0.803692
 C     -2.187644    3.590015    0.867579
 C     -1.158073    4.498854    1.035041
 C     -3.834504    1.510513   -0.815633
 C     -4.580693    0.464409   -1.324149
 C     -4.287961   -0.832564   -0.928752
 H     -3.225491    3.874681    0.993802
 H     -1.377775    5.526229    1.310640
 H     -3.986840    2.529154   -1.151326
 H     -5.359759    0.653891   -2.057294
 H     -4.802834   -1.695272   -1.331517
 N     -0.607305    1.916272    0.405506
 N     -2.644076    0.006868    0.536400
 H      0.984099    4.792775    0.861833
 C      1.738514    2.240615    0.037932
 C     -2.841763   -2.382800    0.500139
 F     -3.241799   -2.536471    1.727455
 F     -3.344780   -3.314613   -0.270270
 F     -1.540722   -2.394143    0.424363
 F      2.095607    1.204325    0.725202
 F      2.641762    3.184860    0.134629
 F      1.577897    1.896572   -1.221467
