51

 Si    -0.198118   -0.193857    1.908486
 O      1.293921    0.002001    1.324433
 C      2.003603    1.058176    0.750642
 C      1.072158    1.728698   -0.214687
 H      2.803467    0.577107    0.186167
 C      0.924473    1.153541   -1.463851
 C      0.250011    2.785223    0.131006
 C     -0.079214    1.559214   -2.323666
 H      1.618457    0.389633   -1.767168
 C     -0.750763    3.206759   -0.723547
 H      0.372398    3.281168    1.080235
 C     -0.938186    2.577474   -1.942716
 H     -0.180133    1.100561   -3.302028
 H     -1.392332    4.030154   -0.429125
 H     -1.729543    2.905723   -2.610442
 C      2.637673    1.932325    1.795133
 C      3.411155    1.125099    2.747148
 H      1.878964    2.480299    2.347510
 H      3.299898    2.660009    1.309476
 C      4.023196    0.454230    3.531079
 H      4.577023   -0.122030    4.233235
 Cl    -0.872414   -1.349383    3.407200
 Cl    -0.422657    1.561630    2.887384
 O     -1.142111    0.309845    0.565195
 O     -0.193192   -1.729875    1.007413
 C     -1.673093   -1.275596   -1.012039
 C     -0.262923   -1.576702   -1.216492
 C      1.747037   -2.061061   -0.137252
 C     -3.307451   -0.060913    0.129156
 C     -4.319166   -0.667668   -0.565803
 C     -2.663467   -1.914347   -1.742754
 C     -3.992787   -1.618802   -1.520976
 C      0.324460   -1.749028   -2.453566
 C      1.668913   -2.067303   -2.521598
 C      2.385706   -2.211439   -1.348177
 H     -2.365450   -2.657880   -2.471250
 H     -4.770436   -2.127982   -2.083153
 H     -0.272666   -1.607398   -3.345328
 H      2.156084   -2.195838   -3.483783
 H      3.438099   -2.462846   -1.341994
 N     -2.021783   -0.373446   -0.084713
 N      0.453453   -1.760454   -0.101515
 H     -5.341568   -0.389576   -0.346743
 C     -3.536853    0.988980    1.199297
 C      2.534863   -2.306732    1.140438
 F      3.508236   -1.433279    1.162806
 F      1.817659   -2.236666    2.207595
 F      3.044222   -3.520470    1.029501
 F     -3.095337    0.496063    2.319766
 F     -4.823559    1.234103    1.288741
 F     -2.899927    2.072553    0.865325
