51

 Si    -0.679743   -1.828339   -0.609356
 O      0.784788   -1.380245   -0.145904
 C      1.819299   -1.352187    0.756574
 C      1.578703   -0.190817    1.676014
 H      2.727936   -1.161530    0.177656
 C      0.296630    0.044693    2.141382
 C      2.597956    0.687420    2.012030
 C      0.019972    1.162293    2.907921
 H     -0.485195   -0.650833    1.894308
 C      2.330865    1.804314    2.791383
 H      3.608503    0.503428    1.662911
 C      1.038554    2.049793    3.232721
 H     -0.991841    1.335720    3.262617
 H      3.135509    2.487283    3.050081
 H      0.826863    2.927147    3.837856
 C      2.005988   -2.671327    1.458862
 C      2.202267   -3.736348    0.465076
 H      1.136704   -2.900403    2.072594
 H      2.884951   -2.615505    2.112637
 C      2.353096   -4.571918   -0.382701
 H      2.489876   -5.329326   -1.117467
 Cl    -1.072483   -3.061937   -2.129671
 Cl    -1.209616   -3.036752    0.931596
 O     -1.738558   -0.648811    0.053397
 O     -0.484158   -0.548461   -1.870291
 C     -1.738930    1.447319   -0.838318
 C     -0.282578    1.435723   -0.810672
 C      1.571126    0.379910   -1.754809
 C     -3.700401    0.192688   -0.644299
 C     -4.466014    1.229269   -1.109908
 C     -2.469156    2.530292   -1.299638
 C     -3.840047    2.424064   -1.437411
 C      0.516206    2.441168   -0.304492
 C      1.879000    2.385029   -0.517486
 C      2.408017    1.356432   -1.280938
 H     -1.939499    3.435298   -1.571467
 H     -4.419442    3.263994   -1.810497
 H      0.056299    3.250075    0.248924
 H      2.526566    3.160478   -0.121331
 H      3.460567    1.305319   -1.525393
 N     -2.374997    0.318856   -0.517860
 N      0.270232    0.419009   -1.476627
 H     -5.535066    1.088249   -1.203658
 C     -4.247644   -1.154336   -0.208016
 C      1.993356   -0.706248   -2.729139
 F      1.785542   -1.887080   -2.246312
 F      1.289699   -0.524466   -3.817576
 F      3.274889   -0.552529   -2.984111
 F     -3.624493   -2.073641   -0.889093
 F     -5.533883   -1.195921   -0.462627
 F     -4.036216   -1.286303    1.070529
