51

 Si    -0.568070   -1.340811   -0.622424
 O      0.722675   -0.658498    0.059405
 C      1.632739   -1.105284    1.008883
 C      2.923924   -1.357120    0.304771
 H      1.258162   -2.039222    1.431419
 C      2.856597   -2.033819   -0.902413
 C      4.149609   -0.912286    0.766443
 C      3.991218   -2.236009   -1.661466
 H      1.904965   -2.396037   -1.252889
 C      5.295524   -1.119772    0.014106
 H      4.226684   -0.395737    1.713537
 C      5.218189   -1.772248   -1.205592
 H      3.919326   -2.759931   -2.609708
 H      6.252993   -0.764991    0.384367
 H      6.114748   -1.926954   -1.799043
 C      1.670509   -0.078807    2.108899
 C      0.310784    0.180037    2.605428
 H      2.108129    0.850541    1.753899
 H      2.285115   -0.433018    2.943720
 C     -0.810432    0.364881    2.991965
 H     -1.788415    0.516815    3.377753
 Cl    -0.608750   -2.027825   -2.503615
 Cl    -0.590961   -3.119924    0.350400
 O     -1.967844   -0.871487    0.259259
 O     -0.818281    0.275478   -1.361957
 C     -2.826680    1.213637   -0.132740
 C     -1.514022    1.777158    0.150693
 C      0.711611    1.747038   -0.537021
 C     -4.103982   -0.715902   -0.442431
 C     -5.212093    0.017006   -0.779418
 C     -3.920318    1.998600   -0.455994
 C     -5.120717    1.400916   -0.788547
 C     -1.269658    2.821071    1.014428
 C      0.016341    3.326417    1.108175
 C      1.007431    2.793180    0.309106
 H     -3.800992    3.075221   -0.462004
 H     -5.980410    2.008236   -1.057553
 H     -2.085090    3.218778    1.606209
 H      0.237301    4.143462    1.788744
 H      2.019137    3.175774    0.312982
 N     -2.944552   -0.118357   -0.142073
 N     -0.519573    1.257052   -0.581619
 H     -6.127560   -0.505585   -1.023922
 C     -4.090039   -2.231676   -0.348745
 C      1.785662    1.242267   -1.485035
 F      1.456930    0.178824   -2.124987
 F      2.009811    2.225846   -2.335411
 F      2.859094    1.035287   -0.766052
 F     -3.185309   -2.670505   -1.173480
 F     -5.272543   -2.688742   -0.689518
 F     -3.818915   -2.562981    0.881069
