51

 Si     0.607917   -0.924136   -0.415923
 O     -0.895671   -1.349952    0.006633
 C     -1.992363   -1.977420   -0.561026
 C     -3.191075   -1.189870   -0.149844
 H     -1.900751   -1.956692   -1.646924
 C     -3.498418   -1.073487    1.194737
 C     -3.926189   -0.479940   -1.081692
 C     -4.519754   -0.240905    1.610449
 H     -2.917890   -1.621840    1.922297
 C     -4.949437    0.358911   -0.672925
 H     -3.694149   -0.570913   -2.135186
 C     -5.244538    0.484176    0.674109
 H     -4.751401   -0.154286    2.667660
 H     -5.516174    0.917539   -1.411467
 H     -6.046344    1.142003    0.996901
 C     -2.035098   -3.414914   -0.102051
 C     -0.905187   -4.198083   -0.628892
 H     -2.967752   -3.887649   -0.432747
 H     -2.007890   -3.441090    0.987364
 C      0.010789   -4.835350   -1.072201
 H      0.815664   -5.409564   -1.463343
 Cl     0.526859   -1.342698   -2.380014
 Cl     1.600817   -2.074394    0.897405
 O      0.308361    0.495898    0.535876
 O      2.038987    0.070444   -0.892215
 C      1.757200    2.236971    0.528310
 C      2.819604    1.295383    0.859518
 C      4.035016   -0.503363   -0.004523
 C     -0.443002    2.468589   -0.220223
 C     -0.286544    3.814769   -0.418911
 C      1.965537    3.596685    0.361663
 C      0.938545    4.392573   -0.109774
 C      3.736760    1.450488    1.880612
 C      4.801550    0.571777    1.971271
 C      4.973700   -0.392357    0.989573
 H      2.946342    4.003758    0.576672
 H      1.096056    5.457309   -0.257469
 H      3.600335    2.258143    2.589851
 H      5.522198    0.667024    2.778303
 H      5.832991   -1.049322    0.971191
 N      0.559061    1.720323    0.252364
 N      2.956340    0.285083   -0.008368
 H     -1.119321    4.385935   -0.809809
 C     -1.697563    1.668912   -0.502168
 C      4.224646   -1.342135   -1.260981
 F      4.248073   -0.488471   -2.257294
 F      5.385590   -1.955270   -1.172168
 F      3.278952   -2.207151   -1.423802
 F     -1.358240    0.741356   -1.351482
 F     -2.615205    2.440089   -1.020129
 F     -2.107932    1.157112    0.610793
