63

 Si    -0.012502   -0.005194   -1.703044
 O     -0.697769   -1.031715   -0.657044
 C     -1.580951   -0.935223    0.402404
 C     -2.782786   -1.792806    0.122876
 H     -1.902590    0.098672    0.528904
 C     -2.648467   -2.917679   -0.673926
 C     -4.021428   -1.481410    0.668776
 C     -3.743293   -3.725982   -0.934969
 H     -1.685784   -3.146132   -1.106469
 C     -5.118804   -2.290062    0.414564
 H     -4.132672   -0.603277    1.296208
 C     -4.981533   -3.413874   -0.388765
 H     -3.629040   -4.601514   -1.567443
 H     -6.084936   -2.040140    0.843936
 H     -5.841197   -4.046727   -0.590603
 C     -0.879418   -1.383194    1.667961
 C      0.034507   -0.374831    2.230063
 H     -1.615520   -1.613152    2.446552
 H     -0.331951   -2.300393    1.450903
 C      0.725790    0.460591    2.746561
 H      1.321411    1.184185    3.244487
 Cl    -0.836226    1.507132   -2.758280
 Cl     0.000898   -1.343109   -3.256953
 O      0.134202    1.038424   -0.246722
 O      1.686148   -0.034935   -1.620611
 C      2.075234    2.193601   -0.253292
 C      2.666783    0.931799    0.180779
 C      2.582070   -1.425310   -0.033351
 C     -0.002604    3.319314   -0.343106
 C      0.676922    4.519054   -0.510469
 C      2.771603    3.364092   -0.421148
 C      2.053354    4.543836   -0.592332
 C      3.486637    0.845173    1.277412
 C      3.855138   -0.414770    1.735880
 C      3.383335   -1.538692    1.093777
 H      3.854076    3.344909   -0.404156
 H      2.575905    5.484156   -0.744228
 H      3.795850    1.751015    1.782154
 H      4.493795   -0.511755    2.609729
 H      3.638501   -2.529827    1.442891
 C      2.084919   -2.568383   -0.854200
 N      0.726615    2.195333   -0.299994
 N      2.280808   -0.187664   -0.451522
 C     -1.471783    3.185908   -0.092216
 H      0.098084    5.430340   -0.574217
 C     -1.675733    3.130937    1.420250
 C     -2.286250    4.287197   -0.751853
 H     -1.769033    2.228220   -0.511652
 H     -2.732063    2.988985    1.647825
 H     -1.121823    2.302640    1.856743
 H     -1.356042    4.056797    1.897542
 H     -3.348392    4.079469   -0.620107
 H     -2.085166    5.261077   -0.307835
 H     -2.086864    4.342829   -1.821924
 C      1.932801   -3.846881   -0.046640
 H      1.106373   -2.266852   -1.218409
 C      3.019153   -2.749291   -2.046271
 H      1.312979   -3.696507    0.836800
 H      1.450324   -4.602239   -0.666860
 H      2.895111   -4.246623    0.269267
 H      4.014446   -3.049144   -1.718660
 H      2.631412   -3.526845   -2.702194
 H      3.097440   -1.833557   -2.623781
