63

 Si     0.105436   -0.245090    1.500495
 O     -1.433758    0.039674    1.094965
 C     -2.471163   -0.647100    0.456711
 C     -1.859976   -1.481258   -0.629595
 H     -3.078459    0.136768   -0.008510
 C     -1.539070   -0.850125   -1.819534
 C     -1.498258   -2.805310   -0.456822
 C     -0.819463   -1.502953   -2.802919
 H     -1.871802    0.160685   -1.979005
 C     -0.784589   -3.471837   -1.437672
 H     -1.764000   -3.325994    0.450698
 C     -0.427316   -2.818318   -2.606843
 H     -0.581449   -0.996706   -3.732850
 H     -0.507698   -4.510705   -1.285288
 H      0.134015   -3.342404   -3.375365
 C     -3.331829   -1.363390    1.462196
 C     -3.868352   -0.401244    2.438939
 H     -4.164741   -1.865827    0.954876
 H     -2.746736   -2.112481    1.991607
 C     -4.288241    0.403790    3.224519
 H     -4.682399    1.092062    3.933900
 Cl     1.255121    0.426812    3.025198
 Cl    -0.147385   -2.114891    2.296919
 O      0.862477   -0.822401    0.094874
 O      0.437712    1.367557    0.836366
 C      1.952443    0.768739   -1.116738
 C      0.651353    1.369176   -1.398124
 C     -1.209424    2.408690   -0.368373
 C      3.145892   -0.876057    0.105569
 C      4.335746   -0.354102   -0.381734
 C      3.117954    1.295673   -1.616294
 C      4.328835    0.723665   -1.240556
 C      0.229656    1.739758   -2.650741
 C     -0.962720    2.444440   -2.763046
 C     -1.666878    2.781833   -1.625364
 H      3.071368    2.157794   -2.268622
 H      5.263808    1.132038   -1.614632
 H      0.826667    1.476543   -3.514218
 H     -1.330489    2.743394   -3.740875
 H     -2.579023    3.359589   -1.688368
 C     -1.809167    2.827240    0.934850
 N      2.003496   -0.291638   -0.289617
 N     -0.082612    1.687505   -0.317357
 C      3.028720   -2.065650    1.000957
 H      5.263005   -0.814037   -0.068655
 C      2.670794   -3.275816    0.146431
 C      4.273568   -2.293661    1.842938
 H      2.192526   -1.858005    1.665711
 H      2.504652   -4.140780    0.786665
 H      1.761254   -3.097422   -0.418189
 H      3.476045   -3.520433   -0.546030
 H      4.077742   -3.097784    2.552424
 H      5.128164   -2.589709    1.235998
 H      4.540605   -1.404211    2.414388
 C     -3.270500    3.225627    0.811689
 H     -1.737652    1.958761    1.581428
 C     -0.952606    3.948676    1.515681
 H     -3.868849    2.432471    0.364850
 H     -3.672087    3.420341    1.805744
 H     -3.398377    4.133445    0.223152
 H     -0.973500    4.832286    0.878062
 H     -1.335364    4.236361    2.494337
 H      0.076876    3.625945    1.638796
