63

 Si    -0.173219   -0.404546    1.559691
 O     -0.359784   -1.545165    0.409991
 C      0.309977   -1.806049   -0.771683
 C      1.789566   -1.856279   -0.523292
 H      0.111146   -1.017620   -1.499000
 C      2.263227   -2.177016    0.736287
 C      2.690589   -1.572086   -1.538435
 C      3.623153   -2.195394    0.994452
 H      1.563228   -2.414779    1.522040
 C      4.053846   -1.600147   -1.290490
 H      2.325933   -1.327245   -2.529922
 C      4.523899   -1.905095   -0.020424
 H      3.977095   -2.442791    1.990856
 H      4.752808   -1.381660   -2.093081
 H      5.592186   -1.925556    0.175659
 C     -0.215313   -3.115670   -1.321832
 C     -1.526219   -2.959520   -1.979442
 H      0.476511   -3.521819   -2.068739
 H     -0.293646   -3.832341   -0.502783
 C     -2.566123   -2.826081   -2.566704
 H     -3.483353   -2.749128   -3.098779
 Cl     1.255075    0.447625    2.712965
 Cl    -0.805964   -1.673863    3.040584
 O      0.386553    0.570687    0.161230
 O     -1.562582    0.564594    1.548913
 C     -0.714436    2.521640    0.067097
 C     -1.812945    1.680441   -0.403471
 C     -3.132999   -0.234028    0.064093
 C      1.626331    2.494732    0.397816
 C      1.593681    3.876965    0.557697
 C     -0.776064    3.881694    0.210852
 C      0.403565    4.567048    0.501326
 C     -2.439653    1.878532   -1.604873
 C     -3.435670    0.982849   -1.987678
 C     -3.778633   -0.056560   -1.152811
 H     -1.724741    4.389795    0.090833
 H      0.388368    5.644373    0.640984
 H     -2.140771    2.708785   -2.231911
 H     -3.943399    1.108047   -2.940354
 H     -4.559781   -0.753034   -1.421261
 C     -3.474555   -1.269356    1.081081
 N      0.454716    1.870328    0.235238
 N     -2.165077    0.640180    0.372123
 C      2.879911    1.689765    0.260419
 H      2.531048    4.392705    0.717592
 C      3.388068    1.884058   -1.167029
 C      3.931835    2.065347    1.292602
 H      2.599829    0.648748    0.390216
 H      4.281155    1.283316   -1.326712
 H      2.642723    1.575517   -1.898679
 H      3.647155    2.925416   -1.356264
 H      4.781876    1.389365    1.204449
 H      4.299296    3.079025    1.139937
 H      3.543093    1.985159    2.306051
 C     -4.261644   -2.436406    0.512497
 H     -2.519531   -1.637662    1.448844
 C     -4.217650   -0.590600    2.228722
 H     -3.742401   -2.898594   -0.323814
 H     -4.381756   -3.189792    1.290820
 H     -5.257981   -2.137202    0.189816
 H     -5.179262   -0.201492    1.894546
 H     -4.405499   -1.314386    3.019870
 H     -3.636792    0.222229    2.651273
