63

 Si    -0.133292   -1.014408    1.015401
 O      1.452693   -1.343555    1.297007
 C      2.420619   -1.910282    0.473462
 C      2.518679   -1.048675   -0.754989
 H      2.093932   -2.909133    0.174334
 C      3.200910    0.153313   -0.732719
 C      1.748311   -1.361972   -1.863089
 C      3.068667    1.060231   -1.768533
 H      3.831402    0.393510    0.109495
 C      1.610589   -0.463072   -2.904462
 H      1.233442   -2.311927   -1.902764
 C      2.256719    0.761741   -2.852004
 H      3.608226    2.001718   -1.736629
 H      1.002818   -0.724892   -3.765266
 H      2.154735    1.471371   -3.668364
 C      3.690876   -2.038774    1.272785
 C      3.508618   -2.964787    2.401998
 H      4.509236   -2.404588    0.639924
 H      3.977010   -1.062153    1.663778
 C      3.346230   -3.726927    3.315189
 H      3.223893   -4.404822    4.126083
 Cl    -0.664049   -0.913383    2.950487
 Cl    -0.646149   -2.719874    0.071709
 O      0.488963    0.213651    0.004346
 O     -1.651168   -0.153676    0.656544
 C     -0.861072    1.639293   -1.105615
 C     -1.643584    0.486807   -1.540318
 C     -3.109815   -1.199083   -0.750231
 C      0.744551    2.415304    0.451632
 C      0.457035    3.720243    0.078468
 C     -1.155248    2.922954   -1.501221
 C     -0.469809    3.978474   -0.910391
 C     -2.037673    0.277342   -2.838246
 C     -2.975580   -0.716248   -3.099275
 C     -3.533998   -1.419138   -2.052490
 H     -1.935976    3.087338   -2.232552
 H     -0.689870    5.002059   -1.201138
 H     -1.620397    0.893752   -3.623795
 H     -3.294531   -0.909244   -4.119851
 H     -4.305534   -2.157262   -2.223413
 C     -3.704539   -1.819176    0.475122
 N      0.095589    1.432281   -0.187749
 N     -2.135762   -0.295742   -0.557463
 C      1.663557    2.028545    1.565409
 H      0.975710    4.523148    0.585255
 C      2.971214    2.805718    1.522976
 C      0.922636    2.250075    2.882588
 H      1.862171    0.966287    1.449566
 H      3.649697    2.416623    2.282286
 H      3.462806    2.719379    0.556149
 H      2.813592    3.862148    1.734388
 H      1.534605    1.898092    3.711920
 H      0.714645    3.307279    3.041757
 H     -0.015349    1.701853    2.907612
 C     -4.289093   -3.196930    0.212395
 H     -2.895761   -1.905851    1.197504
 C     -4.735702   -0.841623    1.033084
 H     -3.550694   -3.864151   -0.231505
 H     -4.611361   -3.636491    1.156535
 H     -5.158515   -3.151151   -0.442050
 H     -5.553418   -0.680289    0.330594
 H     -5.160505   -1.238556    1.954616
 H     -4.275933    0.117304    1.263727
