63

 Si    -0.311100   -1.222121   -0.253270
 O      1.056280   -0.552494    0.277690
 C      2.056376   -0.898512    1.176822
 C      3.330424   -1.039612    0.396919
 H      1.803781   -1.860119    1.631599
 C      3.260598   -1.730492   -0.806792
 C      4.546224   -0.515914    0.805743
 C      4.382148   -1.883200   -1.600509
 H      2.317714   -2.153822   -1.119006
 C      5.678271   -0.671802    0.016097
 H      4.628475    0.014942    1.745476
 C      5.598527   -1.349313   -1.190045
 H      4.309458   -2.424887   -2.539152
 H      6.626011   -0.258005    0.349161
 H      6.483386   -1.467872   -1.809057
 C      2.069827    0.150999    2.261020
 C      0.729961    0.304607    2.846890
 H      2.770697   -0.123454    3.057369
 H      2.389834    1.109347    1.854839
 C     -0.369993    0.412200    3.314427
 H     -1.330967    0.500825    3.758024
 Cl    -0.635031   -1.943529   -2.110460
 Cl    -0.160148   -3.031948    0.695451
 O     -1.648941   -0.817703    0.710860
 O     -0.601058    0.369723   -1.005825
 C     -2.722421    1.107977    0.169273
 C     -1.476787    1.793965    0.501074
 C      0.743304    2.074130   -0.266810
 C     -3.738941   -1.004855   -0.192345
 C     -4.887183   -0.358231   -0.629253
 C     -3.850293    1.769384   -0.246723
 C     -4.950320    1.018768   -0.652877
 C     -1.366953    2.846660    1.371356
 C     -0.146575    3.509362    1.448068
 C      0.884596    3.141805    0.610182
 H     -3.851422    2.851406   -0.276275
 H     -5.851733    1.518101   -0.998093
 H     -2.221498    3.139794    1.967941
 H     -0.018547    4.337650    2.139621
 H      1.819752    3.684783    0.612241
 C      1.733034    1.661066   -1.307418
 N     -2.710540   -0.235542    0.193144
 N     -0.416207    1.408881   -0.232689
 C     -3.565474   -2.484107   -0.064927
 H     -5.727090   -0.961840   -0.945598
 C     -3.813392   -2.873679    1.388186
 C     -4.439692   -3.261800   -1.035501
 H     -2.520510   -2.681901   -0.297644
 H     -3.622243   -3.937556    1.520696
 H     -3.150051   -2.329924    2.054800
 H     -4.846208   -2.678745    1.676942
 H     -4.183610   -4.319628   -0.973844
 H     -5.498047   -3.163765   -0.797487
 H     -4.281109   -2.940334   -2.065370
 C      3.119992    2.231638   -1.069916
 H      1.779707    0.579656   -1.252820
 C      1.183534    2.060217   -2.674056
 H      3.499180    1.980331   -0.082315
 H      3.808497    1.812825   -1.802646
 H      3.138288    3.314678   -1.185291
 H      1.083233    3.142046   -2.758383
 H      1.865638    1.728797   -3.456142
 H      0.217337    1.600143   -2.853369
