63

 Si     0.650915   -1.215226    0.888119
 O     -0.935985   -0.940433    1.002654
 C     -2.074852   -1.627606    0.593634
 C     -2.529548   -0.953684   -0.669727
 H     -1.799529   -2.658320    0.362111
 C     -3.717495   -0.254417   -0.791958
 C     -1.660268   -1.003550   -1.752279
 C     -4.036794    0.386519   -1.982460
 H     -4.413953   -0.209438    0.034832
 C     -1.967287   -0.362820   -2.936949
 H     -0.738019   -1.554276   -1.657534
 C     -3.162220    0.337537   -3.055884
 H     -4.976287    0.925745   -2.066523
 H     -1.278394   -0.416299   -3.774724
 H     -3.412219    0.838266   -3.987132
 C     -3.057448   -1.645694    1.734648
 C     -2.418945   -2.169926    2.950503
 H     -3.924998   -2.266839    1.480889
 H     -3.417222   -0.640474    1.943872
 C     -1.866626   -2.581658    3.933286
 H     -1.396300   -2.958822    4.810470
 Cl     1.980372   -1.302664    2.401515
 Cl     0.593481   -3.223237    0.476879
 O      1.230361   -0.921900   -0.684301
 O      0.802435    0.551705    1.075155
 C      1.828320    1.215425   -1.147523
 C      0.432169    1.564364   -0.901254
 C     -1.148316    1.736894    0.850226
 C      3.456754   -0.501557   -0.976163
 C      4.436760    0.416784   -1.327690
 C      2.777116    2.138197   -1.509259
 C      4.104174    1.726833   -1.600266
 C     -0.364494    2.269635   -1.763767
 C     -1.608599    2.691848   -1.310025
 C     -1.977013    2.451425   -0.004556
 H      2.480388    3.163557   -1.688768
 H      4.876907    2.440494   -1.873466
 H     -0.010783    2.485517   -2.763811
 H     -2.271659    3.241736   -1.970620
 H     -2.914787    2.824853    0.381300
 C     -1.379301    1.521799    2.311832
 N      2.194438   -0.054969   -0.910118
 N     -0.004495    1.271099    0.337861
 C      3.677342   -1.956917   -0.715794
 H      5.462075    0.076946   -1.383640
 C      3.357301   -2.727156   -1.992210
 C      5.072940   -2.251523   -0.189746
 H      2.949291   -2.237415    0.043344
 H      3.438563   -3.797052   -1.805808
 H      2.343766   -2.522543   -2.325978
 H      4.052354   -2.470589   -2.791655
 H      5.132609   -3.304097    0.087550
 H      5.838580   -2.063699   -0.941304
 H      5.300532   -1.659971    0.697578
 C     -2.786577    1.894557    2.750027
 H     -1.213439    0.461919    2.483041
 C     -0.334959    2.316089    3.091582
 H     -3.550783    1.393454    2.159372
 H     -2.927111    1.601864    3.790444
 H     -2.955233    2.968747    2.685636
 H     -0.444342    3.385866    2.916005
 H     -0.463272    2.141255    4.159086
 H      0.669611    2.013842    2.819440
