69

 Si    -0.103334   -0.947145   -0.821876
 O      1.116701   -0.445602    0.102202
 C      1.885982   -0.631296    1.234863
 C      3.270031   -1.042283    0.835847
 H      1.945804    0.348088    1.717902
 C      3.444446   -2.065902   -0.082454
 C      4.380618   -0.382803    1.343961
 C      4.714125   -2.425209   -0.499086
 H      2.578130   -2.576535   -0.475570
 C      5.656460   -0.743003    0.934515
 H      4.255976    0.415219    2.067889
 C      5.824876   -1.762890    0.009428
 H      4.837363   -3.226487   -1.221867
 H      6.520702   -0.223806    1.339174
 H      6.822791   -2.045029   -0.314432
 C      1.260983   -1.589337    2.220904
 C     -0.051597   -1.138540    2.711794
 H      1.928061   -1.687959    3.086097
 H      1.145855   -2.569046    1.763752
 C     -1.113221   -0.783804    3.146490
 H     -2.047929   -0.498336    3.561202
 Cl    -0.069109   -1.106107   -2.835130
 Cl     0.033938   -2.963658   -0.461683
 O     -1.510562   -0.933880    0.123064
 O     -0.434532    0.775266   -1.119750
 C     -2.287198    1.147773    0.599334
 C     -0.926320    1.590068    0.900014
 C      1.093758    2.218140   -0.162747
 C     -3.749432   -0.562241   -0.149420
 C     -4.803576    0.336641   -0.044882
 C     -3.325395    2.040611    0.725443
 C     -4.604340    1.632088    0.382096
 C     -0.576483    2.208449    2.071851
 C      0.673580    2.806214    2.143180
 C      1.474114    2.839926    1.021795
 H     -3.116684    3.045118    1.068685
 H     -5.441383    2.321125    0.454077
 H     -1.272228    2.220779    2.899791
 H      1.000779    3.285935    3.061446
 H      2.418812    3.362151    1.049836
 C      1.856945    2.352126   -1.463930
 N     -2.517112   -0.097795    0.144364
 N     -0.065542    1.547747   -0.130178
 C     -3.937841   -2.016829   -0.524868
 H     -5.796824   -0.002371   -0.297377
 C     -5.419212   -2.322290   -0.769121
 C     -3.177862   -2.306418   -1.812371
 C     -3.455827   -2.885213    0.636707
 H     -5.520117   -3.375379   -1.022673
 H     -6.033766   -2.146364    0.111882
 H     -5.830665   -1.752716   -1.600535
 H     -3.365289   -3.329513   -2.125666
 H     -3.499978   -1.651537   -2.619070
 H     -2.115740   -2.200245   -1.687265
 C      2.942849    3.424369   -1.321260
 C      2.527696    1.044758   -1.850199
 C      0.875488    2.802613   -2.546369
 H      3.718756    3.136090   -0.614973
 H      3.426369    3.564963   -2.285557
 H      2.539675    4.390047   -1.020931
 H      0.399787    3.745588   -2.282162
 H      1.411493    2.960713   -3.479269
 H      0.108343    2.064452   -2.725014
 H     -3.605793   -3.933691    0.390507
 H     -2.407533   -2.742488    0.846987
 H     -4.025922   -2.677630    1.540747
 H      3.183478    0.685204   -1.069011
 H      1.807351    0.278067   -2.066578
 H      3.126234    1.201046   -2.744551
