69

 Si     0.500272   -0.212381   -0.527410
 O      0.771681   -1.692870    0.122682
 C      1.918638   -2.464647    0.207219
 C      2.676641   -2.107122    1.453019
 H      2.547265   -2.280298   -0.668251
 C      1.971394   -1.837896    2.614889
 C      4.060870   -2.042194    1.463472
 C      2.636502   -1.493259    3.778078
 H      0.893712   -1.889244    2.596320
 C      4.734938   -1.701711    2.627951
 H      4.619340   -2.255453    0.558425
 C      4.024816   -1.423961    3.786108
 H      2.073439   -1.282171    4.682480
 H      5.820239   -1.652620    2.627675
 H      4.552584   -1.156236    4.697118
 C      1.511601   -3.919862    0.223775
 C      0.858896   -4.343020   -1.025895
 H      2.391632   -4.555126    0.381807
 H      0.827932   -4.082329    1.057986
 C      0.345238   -4.696882   -2.052151
 H     -0.101507   -5.026874   -2.959204
 Cl     2.009582    0.801317    0.328878
 Cl     0.700524   -0.810480   -2.449725
 O     -0.330129    1.204378   -1.202521
 O     -0.815490   -0.221941    0.572740
 C     -1.003597    2.433841    0.564743
 C     -2.182739    1.569998    0.588743
 C     -3.061256   -0.626934    0.440818
 C      0.613295    3.299863   -0.935087
 C      0.852424    4.321435   -0.018743
 C     -0.793253    3.438617    1.470828
 C      0.203872    4.368280    1.194787
 C     -3.441056    2.123283    0.632068
 C     -4.539164    1.280063    0.567650
 C     -4.339179   -0.081441    0.472009
 H     -1.406661    3.492424    2.360879
 H      0.425461    5.162576    1.902006
 H     -3.544398    3.198654    0.692636
 H     -5.547089    1.685366    0.587318
 H     -5.185848   -0.749545    0.425017
 C     -2.791383   -2.112951    0.359515
 N     -0.229508    2.332593   -0.536102
 N     -2.029579    0.238926    0.484818
 C      1.160042    3.304016   -2.349798
 H      1.566145    5.088500   -0.279109
 C      1.700764    4.699589   -2.683705
 C      2.290515    2.298845   -2.517663
 C      0.011804    2.994623   -3.310876
 H      2.003582    4.717877   -3.728404
 H      0.953101    5.480108   -2.552157
 H      2.578862    4.957411   -2.095384
 H      2.692630    2.381386   -3.524908
 H      3.101449    2.488417   -1.819400
 H      1.942246    1.288137   -2.381033
 C     -2.102093   -2.395726   -0.968280
 C     -1.931860   -2.551100    1.540671
 C     -4.106471   -2.897860    0.400760
 H     -1.120771   -1.963623   -1.009243
 H     -1.976895   -3.464798   -1.097322
 H     -2.686463   -2.029732   -1.809643
 H     -4.756851   -2.666898   -0.440814
 H     -3.880624   -3.960367    0.345554
 H     -4.658873   -2.734397    1.324612
 H      0.367153    3.076811   -4.335261
 H     -0.371107    1.994831   -3.173230
 H     -0.805903    3.704036   -3.194873
 H     -0.937882   -2.143220    1.484435
 H     -2.385786   -2.264275    2.487483
 H     -1.847668   -3.634757    1.538217
