69

 Si     0.014225   -0.207443    1.533435
 O      0.973665   -1.088113    0.580655
 C      1.765131   -1.082330   -0.547393
 C      3.078474   -1.735967   -0.227429
 H      1.948863   -0.062717   -0.875704
 C      3.133723   -2.703410    0.762352
 C      4.233527   -1.390643   -0.917126
 C      4.335679   -3.319589    1.071938
 H      2.232429   -2.957319    1.301191
 C      5.437518   -2.008715   -0.614468
 H      4.195346   -0.636980   -1.696507
 C      5.490589   -2.973760    0.381988
 H      4.369864   -4.072159    1.854345
 H      6.337354   -1.734566   -1.158020
 H      6.433658   -3.457064    0.621553
 C      1.045318   -1.802407   -1.665054
 C     -0.123092   -1.049573   -2.151438
 H      1.722266   -1.946960   -2.515363
 H      0.731807   -2.786099   -1.316164
 C     -1.046970   -0.416415   -2.584138
 H     -1.849638    0.127942   -3.011713
 Cl     0.503393    1.241020    2.858388
 Cl    -0.085509   -1.704575    2.939522
 O     -0.047048    0.911410    0.147371
 O     -1.682812   -0.280328    1.397063
 C     -1.760399    2.298598    0.563805
 C     -2.621776    1.254133    0.008513
 C     -3.245155   -1.030172   -0.096922
 C      0.446388    3.146716    0.437794
 C     -0.026713    4.351803    0.945798
 C     -2.249259    3.480649    1.058796
 C     -1.348174    4.508783    1.306455
 C     -3.545366    1.595673   -0.951719
 C     -4.327134    0.599241   -1.512225
 C     -4.169346   -0.699564   -1.079664
 H     -3.311649    3.586377    1.236599
 H     -1.691208    5.450070    1.726479
 H     -3.627876    2.629564   -1.259353
 H     -5.057388    0.837202   -2.280826
 H     -4.781703   -1.484888   -1.495820
 C     -3.110618   -2.429328    0.465990
 N     -0.437567    2.137075    0.372224
 N     -2.482564   -0.028282    0.389622
 C      1.828609    2.957696   -0.149351
 H      0.666127    5.172499    1.057661
 C      2.571521    4.296825   -0.198967
 C      2.674980    1.986690    0.661612
 C      1.622666    2.469831   -1.585738
 H      3.533431    4.147894   -0.685310
 H      2.036272    5.051534   -0.772364
 H      2.772854    4.693977    0.794052
 H      3.638772    1.860666    0.174996
 H      2.860044    2.368104    1.661388
 H      2.219594    1.018129    0.752360
 C     -1.711275   -2.951740    0.173350
 C     -3.427912   -2.391578    1.960330
 C     -4.111734   -3.377550   -0.203456
 H     -0.939085   -2.335161    0.594268
 H     -1.597450   -3.945263    0.597424
 H     -1.549307   -3.028581   -0.896902
 H     -3.951497   -3.465641   -1.276300
 H     -3.984040   -4.371235    0.220360
 H     -5.145578   -3.086197   -0.027250
 H      2.584243    2.294253   -2.061598
 H      1.055392    1.552636   -1.626325
 H      1.101758    3.217940   -2.180857
 H     -2.719733   -1.799617    2.517721
 H     -4.429136   -2.000673    2.134135
 H     -3.399769   -3.402331    2.359931
