69

 Si    -0.447756   -0.249078    0.563762
 O     -0.426690   -1.814954    0.078464
 C     -1.401331   -2.798535    0.099237
 C     -2.213005   -2.731407   -1.162339
 H     -2.055898   -2.646915    0.961902
 C     -1.573250   -2.454230   -2.359654
 C     -3.583032   -2.939780   -1.152125
 C     -2.291895   -2.372235   -3.539068
 H     -0.506622   -2.291103   -2.356904
 C     -4.309719   -2.863276   -2.332087
 H     -4.089952   -3.160115   -0.218872
 C     -3.666778   -2.576734   -3.526774
 H     -1.780232   -2.152745   -4.471574
 H     -5.383429   -3.028098   -2.315487
 H     -4.235214   -2.516549   -4.450573
 C     -0.718142   -4.140352    0.227848
 C      0.005261   -4.291837    1.500769
 H     -1.457483   -4.947439    0.156762
 H     -0.016911   -4.256319   -0.599465
 C      0.580922   -4.425523    2.546234
 H      1.085352   -4.562582    3.472515
 Cl    -2.129496    0.352386   -0.358187
 Cl    -0.518807   -0.661040    2.542735
 O      0.088886    1.368572    1.063089
 O      0.841347   -0.120826   -0.560299
 C      0.505041    2.505971   -0.839730
 C      1.830569    1.890733   -0.798867
 C      3.123390   -0.064184   -0.442042
 C     -1.247933    3.198000    0.595982
 C     -1.684874    4.047063   -0.418263
 C      0.100510    3.346240   -1.842163
 C     -1.059734    4.087576   -1.644248
 C      2.955886    2.669709   -0.933954
 C      4.198194    2.068326   -0.808288
 C      4.269401    0.712631   -0.563281
 H      0.689849    3.422234   -2.746769
 H     -1.433950    4.741536   -2.426833
 H      2.846289    3.731424   -1.111413
 H      5.107026    2.657361   -0.896031
 H      5.230750    0.231062   -0.466914
 C      3.150513   -1.556697   -0.197672
 N     -0.232906    2.375389    0.282649
 N      1.941671    0.574683   -0.550784
 C     -1.781362    3.250384    2.014857
 H     -2.535400    4.683253   -0.224755
 C     -2.586755    4.540656    2.210361
 C     -2.690076    2.067677    2.317548
 C     -0.591777    3.280856    2.975019
 H     -2.881582    4.615542    3.254810
 H     -2.009448    5.433355    1.975009
 H     -3.501471    4.553627    1.621455
 H     -3.097675    2.180738    3.319666
 H     -3.524737    2.016251    1.623434
 H     -2.149220    1.136152    2.282814
 C      2.531966   -1.824459    1.167423
 C      2.392123   -2.277792   -1.307215
 C      4.593885   -2.070366   -0.185860
 H      1.484352   -1.593300    1.183748
 H      2.622650   -2.876586    1.412423
 H      3.031652   -1.260387    1.951954
 H      5.188083   -1.626370    0.610625
 H      4.580838   -3.143928   -0.011926
 H      5.101444   -1.904476   -1.134623
 H     -0.953322    3.398165    3.993770
 H     -0.015691    2.369002    2.931959
 H      0.066055    4.122883    2.766147
 H      1.337698   -2.066767   -1.272374
 H      2.780758   -2.011887   -2.288555
 H      2.521199   -3.350565   -1.189002
