69

 Si     0.572743   -0.808213    1.299855
 O     -1.035741   -0.778102    1.104827
 C     -1.947477   -1.750585    0.698959
 C     -2.147027   -1.586028   -0.781794
 H     -1.512181   -2.735414    0.871338
 C     -3.324999   -1.137794   -1.352928
 C     -1.070472   -1.885494   -1.605899
 C     -3.428552   -0.990157   -2.730348
 H     -4.181076   -0.909070   -0.732226
 C     -1.159898   -1.728480   -2.975729
 H     -0.159535   -2.248625   -1.160817
 C     -2.345753   -1.279626   -3.544965
 H     -4.363513   -0.647869   -3.165140
 H     -0.308170   -1.970786   -3.604479
 H     -2.426337   -1.163246   -4.622261
 C     -3.189747   -1.639204    1.542197
 C     -2.893056   -1.949510    2.948936
 H     -3.949333   -2.343878    1.183245
 H     -3.606177   -0.634077    1.473593
 C     -2.626012   -2.209563    4.089816
 H     -2.404417   -2.443425    5.104348
 Cl     1.552961   -0.353191    3.004071
 Cl     0.844079   -2.839757    1.416911
 O      1.332333   -0.873741   -0.225163
 O      0.516369    0.948910    1.034364
 C      1.254960    1.058670   -1.413892
 C     -0.161673    1.200927   -1.082903
 C     -1.587346    1.834981    0.695121
 C      3.285548   -0.142445   -1.178947
 C      3.909515    0.825671   -1.955852
 C      1.857238    2.011562   -2.201502
 C      3.213489    1.902330   -2.462427
 C     -1.129722    1.430642   -2.024371
 C     -2.388282    1.807180   -1.582387
 C     -2.595551    2.036875   -0.239516
 H      1.263990    2.833025   -2.580069
 H      3.721594    2.649949   -3.065315
 H     -0.893516    1.319851   -3.072959
 H     -3.190395    1.977661   -2.292881
 H     -3.550491    2.407900    0.101819
 C     -1.660501    2.308549    2.132205
 N      1.977117    0.044655   -0.903305
 N     -0.439304    1.329590    0.224603
 C      3.997083   -1.387750   -0.692201
 H      4.961419    0.714656   -2.170535
 C      5.449082   -1.404496   -1.181609
 C      4.011746   -1.397315    0.829819
 C      3.287437   -2.612463   -1.267596
 H      5.925406   -2.315209   -0.824979
 H      5.525330   -1.409053   -2.267430
 H      6.029534   -0.569061   -0.794550
 H      4.570252   -2.258462    1.185522
 H      4.492517   -0.506224    1.227372
 H      3.021202   -1.465593    1.240772
 C     -0.483632    3.264241    2.343812
 C     -2.964627    3.077127    2.366370
 C     -1.598433    1.163832    3.125196
 H     -0.519664    4.101755    1.648996
 H     -0.523912    3.676420    3.349326
 H      0.463618    2.756962    2.229954
 H     -0.668846    0.631490    3.063496
 H     -1.688183    1.561367    4.133041
 H     -2.401612    0.458264    2.976694
 H      3.817529   -3.512461   -0.965409
 H      2.271668   -2.697099   -0.914991
 H      3.282492   -2.586387   -2.356130
 H     -3.071594    3.933589    1.703124
 H     -3.842103    2.442135    2.258802
 H     -2.969390    3.459082    3.385003
