69

 Si     0.152649   -0.101453    1.295602
 O      1.284615   -0.638750    0.279147
 C      1.691235   -1.826724   -0.310248
 C      3.059502   -2.184904    0.178770
 H      1.003368   -2.625560   -0.032615
 C      4.095269   -1.270620    0.051815
 C      3.297313   -3.403938    0.795537
 C      5.357140   -1.565096    0.537175
 H      3.908316   -0.318631   -0.423357
 C      4.562580   -3.708549    1.278192
 H      2.492395   -4.121824    0.906342
 C      5.593298   -2.789934    1.151117
 H      6.160129   -0.841142    0.434072
 H      4.740596   -4.666799    1.757813
 H      6.583671   -3.026880    1.529723
 C      1.634625   -1.611903   -1.807165
 C      0.314030   -1.133946   -2.251092
 H      1.874958   -2.539962   -2.340935
 H      2.375398   -0.863022   -2.088620
 C     -0.753872   -0.728512   -2.621665
 H     -1.685495   -0.387769   -2.997912
 Cl     0.620539    1.334976    2.635065
 Cl     0.229514   -1.684311    2.605678
 O     -0.141223    1.034985   -0.049349
 O     -1.550640   -0.299798    1.276680
 C     -1.839461    2.341623    0.594420
 C     -2.708178    1.275446    0.094329
 C     -3.248828   -1.024277   -0.074736
 C      0.302538    3.275929    0.207082
 C     -0.149420    4.457716    0.785816
 C     -2.307978    3.497119    1.165373
 C     -1.420424    4.556864    1.312334
 C     -3.731665    1.620292   -0.759633
 C     -4.515120    0.620479   -1.308266
 C     -4.267496   -0.689177   -0.956147
 H     -3.343724    3.561640    1.473353
 H     -1.743783    5.480514    1.784090
 H     -3.885596    2.663746   -0.999364
 H     -5.318114    0.862378   -1.998988
 H     -4.883262   -1.480301   -1.355829
 C     -3.032683   -2.440347    0.418189
 N     -0.545693    2.237555    0.240635
 N     -2.472779   -0.017218    0.386087
 C      1.611819    3.128165   -0.535979
 H      0.519404    5.304981    0.820358
 C      2.280762    4.497187   -0.690801
 C      2.573315    2.196388    0.185727
 C      1.283385    2.579514   -1.925691
 H      3.183311    4.384597   -1.287674
 H      1.644208    5.216309   -1.203669
 H      2.580378    4.919074    0.266701
 H      3.514974    2.175986   -0.357309
 H      2.787063    2.541682    1.192938
 H      2.192337    1.191778    0.234042
 C     -1.646069   -2.907498    0.007557
 C     -3.226456   -2.460704    1.934395
 C     -4.057364   -3.393879   -0.205529
 H     -0.882326   -2.298106    0.450327
 H     -1.486253   -3.927016    0.346845
 H     -1.525860   -2.890470   -1.071189
 H     -3.975766   -3.443437   -1.289773
 H     -3.872904   -4.396532    0.174204
 H     -5.082014   -3.137545    0.056921
 H      2.193969    2.507765   -2.515449
 H      0.843102    1.594994   -1.871457
 H      0.604355    3.238544   -2.464138
 H     -2.496145   -1.855364    2.448663
 H     -4.223568   -2.115816    2.203367
 H     -3.125903   -3.480508    2.298096
