69

 Si    -0.536249   -0.258235    1.507873
 O      0.082473    1.174583    1.109570
 C      0.967904    2.122583    1.606418
 C      2.048796    2.330562    0.586939
 H      1.403750    1.764140    2.541541
 C      1.725706    2.245265   -0.758441
 C      3.357612    2.595571    0.961442
 C      2.701227    2.407400   -1.727543
 H      0.704273    2.035606   -1.037400
 C      4.338871    2.765372   -0.005648
 H      3.616290    2.664955    2.012928
 C      4.013790    2.668166   -1.350755
 H      2.438312    2.336538   -2.779132
 H      5.362133    2.972807    0.295142
 H      4.782133    2.800966   -2.107386
 C      0.207369    3.400970    1.879045
 C     -0.851484    3.202061    2.880930
 H      0.896799    4.173438    2.241041
 H     -0.237793    3.759093    0.949510
 C     -1.708095    3.017956    3.701510
 H     -2.463190    2.866085    4.435023
 Cl     0.452592   -0.517999    3.291183
 Cl    -2.398782   -0.471698    2.257066
 O     -1.078081   -0.184735   -0.201078
 O      0.070640   -1.791782    1.048584
 C     -2.086718   -2.150006   -0.592719
 C     -0.748411   -2.657056   -0.895495
 C      1.574219   -2.687835   -0.425904
 C     -3.329501   -0.133455   -0.672199
 C     -4.492237   -0.895895   -0.722391
 C     -3.220002   -2.920312   -0.641789
 C     -4.449687   -2.272344   -0.650941
 C     -0.564931   -3.373765   -2.056253
 C      0.718029   -3.745700   -2.419951
 C      1.772814   -3.393220   -1.605279
 H     -3.132771   -3.998421   -0.684189
 H     -5.371520   -2.847116   -0.662655
 H     -1.423457   -3.604995   -2.672314
 H      0.893582   -4.300084   -3.337720
 H      2.779232   -3.677794   -1.872082
 C      2.701551   -2.344474    0.523907
 N     -2.182320   -0.808859   -0.504226
 N      0.306265   -2.333101   -0.124695
 C     -3.274687    1.360847   -0.900450
 H     -5.440283   -0.386719   -0.812825
 C     -4.653730    1.879319   -1.317645
 C     -2.830649    2.111463    0.345521
 C     -2.288783    1.601702   -2.044784
 H     -4.578987    2.941272   -1.541835
 H     -5.031501    1.388013   -2.212844
 H     -5.390583    1.770477   -0.524088
 H     -3.493729    1.925178    1.183704
 H     -1.828810    1.851066    0.631464
 H     -2.856292    3.178568    0.142205
 C      2.772246   -0.831428    0.674858
 C      2.459495   -3.059678    1.851970
 C      4.045707   -2.822110   -0.035609
 H      1.875638   -0.420197    1.094278
 H      3.588379   -0.568807    1.339603
 H      2.956965   -0.348876   -0.279059
 H      4.291220   -2.356100   -0.988194
 H      4.830505   -2.547276    0.665825
 H      4.089316   -3.903133   -0.154205
 H     -2.250272    2.662515   -2.280355
 H     -1.291248    1.283861   -1.778051
 H     -2.592420    1.081316   -2.951859
 H      1.546611   -2.740254    2.329666
 H      2.423702   -4.138528    1.709216
 H      3.281056   -2.847730    2.532026
