49

 Si     0.297524   -1.929813    0.388861
 O     -1.116701   -1.153196    0.326625
 C     -2.151404   -1.054201   -0.594686
 C     -1.924682    0.230127   -1.342766
 H     -2.081369   -1.886093   -1.299060
 C     -2.804963    1.298290   -1.330697
 C     -0.732281    0.346210   -2.045504
 C     -2.498598    2.470167   -2.010952
 H     -3.743955    1.227206   -0.797635
 C     -0.416760    1.511004   -2.718012
 H     -0.053775   -0.490955   -2.065459
 C     -1.302834    2.581919   -2.701910
 H     -3.202119    3.298078   -1.997518
 H      0.518152    1.581713   -3.266023
 H     -1.063001    3.498516   -3.233733
 C     -3.456598   -1.163665    0.147616
 C     -3.500970   -2.412229    0.921984
 H     -4.299081   -1.145387   -0.554210
 H     -3.570281   -0.326493    0.834004
 C     -3.506082   -3.430907    1.556723
 H     -3.531983   -4.338526    2.112042
 Cl     0.882720   -3.239339    1.801073
 Cl    -0.002780   -3.256017   -1.142813
 O      1.495838   -1.142807   -0.547043
 O      0.724202   -0.663296    1.594912
 C      2.564288    0.635380    0.402624
 C      1.252812    1.262050    0.538945
 C     -0.809321    1.037852    1.664151
 C      3.727914   -1.361403   -0.110918
 C      4.918475   -0.774297    0.305631
 C      3.729393    1.246017    0.806071
 C      4.921551    0.530654    0.756294
 C      0.930132    2.526627    0.111759
 C     -0.310404    3.050214    0.455384
 C     -1.167059    2.315631    1.247880
 H      3.688906    2.261168    1.180550
 H      5.848576    0.994351    1.082919
 H      1.645106    3.086578   -0.477850
 H     -0.592068    4.044557    0.123443
 H     -2.122368    2.707152    1.573975
 C     -1.590982    0.240050    2.548673
 N      2.597292   -0.629974   -0.047615
 N      0.369589    0.545470    1.254955
 C      3.633775   -2.694297   -0.612820
 H      5.822472   -1.369622    0.257776
 C      3.546118   -3.815921   -1.027638
 H      3.459717   -4.815753   -1.391440
 C     -2.223345   -0.424443    3.319396
 H     -2.798794   -1.008345    4.002035
