49

 Si    -0.456619   -1.260882    1.102749
 O      1.132725   -1.410942    1.489617
 C      2.247299   -1.621712    0.686880
 C      2.265873   -0.516454   -0.332829
 H      2.140493   -2.577296    0.166720
 C      2.666494    0.761913    0.008806
 C      1.665262   -0.725743   -1.563458
 C      2.415515    1.829251   -0.832795
 H      3.156204    0.936217    0.953498
 C      1.413391    0.334774   -2.414381
 H      1.367290   -1.726191   -1.847926
 C      1.770680    1.620886   -2.042567
 H      2.731783    2.827866   -0.546788
 H      0.942865    0.153755   -3.376012
 H      1.577713    2.457508   -2.708342
 C      3.460912   -1.689664    1.576625
 C      3.357629   -2.808436    2.527020
 H      4.370643   -1.813037    0.975599
 H      3.553705   -0.760769    2.138508
 C      3.260712   -3.725308    3.295896
 H      3.196753   -4.538174    3.979565
 Cl    -1.161320   -1.382566    2.977553
 Cl    -0.613401   -2.857662   -0.116994
 O      0.001475    0.216239    0.373535
 O     -2.092740   -0.629104    0.657403
 C     -1.496709    1.697102   -0.421412
 C     -2.007192    0.618805   -1.261509
 C     -3.142094   -1.451310   -1.206573
 C     -0.128296    2.208992    1.439495
 C     -0.615514    3.510042    1.442652
 C     -1.992778    2.982779   -0.449699
 C     -1.535454    3.901753    0.486848
 C     -2.231392    0.743857   -2.612573
 C     -2.898312   -0.274076   -3.285055
 C     -3.382915   -1.352854   -2.573311
 H     -2.750969    3.241116   -1.178296
 H     -1.922008    4.917425    0.485928
 H     -1.885568    1.634690   -3.121429
 H     -3.069866   -0.201046   -4.355409
 H     -3.959647   -2.140018   -3.043798
 C     -3.697281   -2.482372   -0.386699
 N     -0.569385    1.367017    0.485027
 N     -2.397793   -0.496890   -0.609994
 C      0.785700    1.683213    2.399467
 H     -0.258324    4.186878    2.209710
 C      1.507753    1.209863    3.230612
 H      2.143171    0.784050    3.974370
 C     -4.207140   -3.318318    0.305115
 H     -4.659322   -4.065170    0.918648
