49

 Si    -0.318017   -1.394886   -0.471594
 O      0.839583   -0.458498    0.146316
 C      1.860778   -0.608404    1.076108
 C      3.153626   -0.551556    0.319870
 H      1.764137   -1.587834    1.551276
 C      3.284916   -1.420992   -0.756349
 C      4.179844    0.333470    0.604116
 C      4.418641   -1.400915   -1.546654
 H      2.486534   -2.115710   -0.972361
 C      5.324764    0.354880   -0.182425
 H      4.103359    1.014247    1.441746
 C      5.444938   -0.506980   -1.261028
 H      4.504667   -2.085894   -2.385178
 H      6.124391    1.052002    0.051987
 H      6.339525   -0.488051   -1.877259
 C      1.665967    0.451896    2.129758
 C      0.299478    0.385226    2.669327
 H      2.378904    0.319247    2.951655
 H      1.831134    1.440393    1.705458
 C     -0.822711    0.306627    3.087634
 H     -1.801647    0.231679    3.493560
 Cl    -0.357066   -2.148887   -2.340212
 Cl     0.107101   -3.126968    0.533446
 O     -1.805195   -1.260685    0.362857
 O     -0.863952    0.136827   -1.247156
 C     -3.186546    0.444353   -0.266856
 C     -2.130923    1.356577    0.163224
 C      0.078473    2.020449   -0.330804
 C     -3.766539   -1.812566   -0.680291
 C     -4.984449   -1.400158   -1.212802
 C     -4.388833    0.879049   -0.773996
 C     -5.298382   -0.057012   -1.256269
 C     -2.301510    2.408324    1.028891
 C     -1.237027    3.279524    1.237367
 C     -0.061225    3.098036    0.540698
 H     -4.590442    1.942209   -0.811678
 H     -6.247386    0.270051   -1.672771
 H     -3.254649    2.537791    1.526623
 H     -1.341423    4.113566    1.925882
 H      0.774187    3.780393    0.640230
 C      1.233608    1.809059   -1.136644
 N     -2.913296   -0.871155   -0.229609
 N     -0.949365    1.166889   -0.451320
 C     -3.377847   -3.181454   -0.572721
 H     -5.662038   -2.162139   -1.579030
 C     -3.052022   -4.332312   -0.488968
 H     -2.751271   -5.353909   -0.417219
 C      2.199225    1.660841   -1.829708
 H      3.065985    1.533360   -2.437128
