49

 Si    -1.029583    1.063983    1.658913
 O     -0.022439    1.939283    0.748784
 C      0.193357    2.059599   -0.618187
 C      1.301205    1.122346   -0.990854
 H     -0.701966    1.774133   -1.163828
 C      2.569264    1.307008   -0.463087
 C      1.060213    0.035778   -1.815956
 C      3.594248    0.428274   -0.769377
 H      2.752513    2.145880    0.193546
 C      2.081390   -0.848664   -2.128850
 H      0.069848   -0.116005   -2.223452
 C      3.352499   -0.650879   -1.609929
 H      4.585082    0.588731   -0.354576
 H      1.885388   -1.689661   -2.788030
 H      4.157271   -1.336052   -1.861551
 C      0.481974    3.512411   -0.912015
 C     -0.714882    4.329364   -0.647296
 H      0.779992    3.644235   -1.959567
 H      1.299451    3.856730   -0.277765
 C     -1.711695    4.961467   -0.426525
 H     -2.580019    5.544875   -0.231449
 Cl    -0.589708    2.014364    3.411068
 Cl    -3.035964    1.238222    1.797407
 O     -1.193129    0.076123    0.130975
 O     -0.420353   -0.422693    2.255369
 C     -1.594832   -2.107007    0.527229
 C     -0.163873   -2.174045    0.810378
 C      1.709991   -1.070458    1.735531
 C     -3.204728   -0.758779   -0.555783
 C     -4.099373   -1.824301   -0.546268
 C     -2.456893   -3.179319    0.554426
 C     -3.740050   -3.022614    0.040208
 C      0.645562   -3.128941    0.239006
 C      2.019782   -3.055403    0.427153
 C      2.550256   -2.018533    1.165081
 H     -2.116319   -4.120646    0.968020
 H     -4.442357   -3.851158    0.065427
 H      0.196132   -3.902247   -0.370834
 H      2.672781   -3.797541   -0.023324
 H      3.615237   -1.912274    1.324876
 C      2.185774    0.018229    2.521266
 N     -2.010206   -0.920742    0.044799
 N      0.380340   -1.195604    1.552753
 C     -3.446795    0.486827   -1.216990
 H     -5.067638   -1.679402   -1.010290
 C     -3.616005    1.518499   -1.804026
 H     -3.771601    2.437497   -2.323983
 C      2.611499    0.931434    3.170363
 H      2.979360    1.747675    3.751214
