49

 Si    -0.216105   -1.183204   -0.428581
 O      0.833690   -0.010695   -0.088464
 C      1.929519    0.351563    0.666399
 C      3.185279   -0.304282    0.167611
 H      2.028230    1.435617    0.519422
 C      3.136630   -1.169400   -0.911012
 C      4.413830   -0.019549    0.752836
 C      4.292603   -1.756721   -1.399513
 H      2.192095   -1.393207   -1.375019
 C      5.573376   -0.603687    0.269426
 H      4.470387    0.666816    1.589734
 C      5.515887   -1.477405   -0.808443
 H      4.232641   -2.436808   -2.244097
 H      6.526837   -0.374023    0.736790
 H      6.424111   -1.937730   -1.186765
 C      1.666185    0.103125    2.134849
 C      0.382308    0.684143    2.559596
 H      2.466456    0.545971    2.737409
 H      1.639630   -0.966462    2.334053
 C     -0.665068    1.145616    2.922628
 H     -1.573264    1.542718    3.302070
 Cl    -0.340786   -2.263958   -2.126397
 Cl     0.534686   -2.652024    0.775574
 O     -1.602671   -1.044476    0.557235
 O     -1.032317    0.100658   -1.391620
 C     -3.232393    0.389397   -0.152895
 C     -2.239304    1.455317   -0.053880
 C     -0.192086    2.193630   -0.968108
 C     -3.602444   -1.947692   -0.084426
 C     -4.917513   -1.750553   -0.494754
 C     -4.531539    0.614002   -0.545205
 C     -5.384545   -0.471402   -0.719156
 C     -2.410651    2.636655    0.626186
 C     -1.423941    3.611664    0.528589
 C     -0.327674    3.396660   -0.281763
 H     -4.854904    1.629439   -0.736888
 H     -6.409938   -0.311826   -1.041876
 H     -3.303249    2.781562    1.222115
 H     -1.527649    4.548399    1.069369
 H      0.441521    4.147712   -0.416222
 C      0.867175    1.921635   -1.883049
 N     -2.810749   -0.867608    0.070641
 N     -1.134500    1.254274   -0.791619
 C     -3.046251   -3.232408    0.192723
 H     -5.545118   -2.624165   -0.624332
 C     -2.576262   -4.312232    0.418109
 H     -2.148503   -5.270378    0.613724
 C      1.752581    1.703343   -2.660220
 H      2.543769    1.521981   -3.352784
