49

 Si     1.058016   -1.624167    0.452595
 O     -0.445249   -1.272451    0.925111
 C     -1.719846   -1.681216    0.554111
 C     -2.248977   -0.616553   -0.365935
 H     -1.645209   -2.618827   -0.001196
 C     -3.365244    0.155826   -0.094743
 C     -1.532617   -0.381281   -1.532317
 C     -3.762477    1.152383   -0.977205
 H     -3.943035   -0.014719    0.804106
 C     -1.916825    0.612970   -2.411330
 H     -0.670526   -0.991060   -1.748351
 C     -3.037884    1.386792   -2.134804
 H     -4.644258    1.746737   -0.754125
 H     -1.347441    0.778907   -3.321089
 H     -3.348993    2.165670   -2.825505
 C     -2.519374   -1.929279    1.805541
 C     -1.833194   -2.904154    2.665366
 H     -2.642310   -1.002616    2.363313
 H     -3.516570   -2.309816    1.553662
 C     -1.244926   -3.690010    3.356004
 H     -0.742866   -4.398356    3.971659
 Cl     2.544927   -2.333623    1.609064
 Cl     0.665245   -3.330246   -0.610217
 O      1.465656   -0.826385   -1.006492
 O      1.455648   -0.024906    1.178424
 C      2.148289    1.345286   -0.855146
 C      0.859143    1.633903   -0.233677
 C     -0.413754    1.191995    1.703499
 C      3.626685   -0.355749   -1.580026
 C      4.612476    0.599039   -1.808382
 C      3.099134    2.312404   -1.086937
 C      4.347491    1.932789   -1.569529
 C     -0.008581    2.621819   -0.629690
 C     -1.123262    2.884895    0.157347
 C     -1.311708    2.186544    1.331387
 H      2.864828    3.345199   -0.861467
 H      5.114001    2.682712   -1.746071
 H      0.194088    3.173417   -1.539119
 H     -1.827715    3.656336   -0.137412
 H     -2.142938    2.394099    1.993375
 C     -0.481751    0.477022    2.933971
 N      2.431309    0.057737   -1.113711
 N      0.612568    0.925748    0.881556
 C      3.803139   -1.751434   -1.821435
 H      5.572819    0.259717   -2.177867
 C      3.948118   -2.925956   -2.014493
 H      4.072499   -3.973525   -2.177710
 C     -0.509510   -0.104420    3.981158
 H     -0.549038   -0.619198    4.914733
