49

 Si     0.079202   -0.237763    1.494837
 O      0.357897   -1.127581    0.167298
 C      1.508335   -1.828659   -0.187400
 C      2.656080   -0.863751   -0.172547
 H      1.686988   -2.622050    0.543195
 C      2.596052    0.268538   -0.970976
 C      3.741587   -1.052742    0.667594
 C      3.618298    1.198072   -0.946315
 H      1.736332    0.424850   -1.605022
 C      4.767926   -0.119347    0.701920
 H      3.785887   -1.928200    1.306085
 C      4.709835    1.004475   -0.107302
 H      3.568950    2.070767   -1.589547
 H      5.615325   -0.274187    1.363529
 H      5.518251    1.730135   -0.087269
 C      1.278291   -2.435139   -1.549407
 C      0.226870   -3.467130   -1.546579
 H      2.202946   -2.897872   -1.916098
 H      0.999332   -1.644440   -2.246680
 C     -0.608118   -4.330659   -1.555334
 H     -1.324511   -5.116047   -1.574262
 Cl     1.087730    1.205520    2.478090
 Cl     0.428462   -1.672571    2.911774
 O     -0.269165    1.021732    0.185516
 O     -1.623049   -0.291095    1.642230
 C     -2.367485    1.805100    0.292571
 C     -2.691508    0.474503   -0.212568
 C     -2.434949   -1.848797    0.138882
 C     -0.558304    3.278890    0.615524
 C     -1.464715    4.304617    0.892027
 C     -3.285207    2.792164    0.549267
 C     -2.821229    4.061248    0.888994
 C     -3.371355    0.264024   -1.384354
 C     -3.566770   -1.044311   -1.821706
 C     -3.104076   -2.092643   -1.059158
 H     -4.341878    2.564435    0.478356
 H     -3.522784    4.859320    1.114975
 H     -3.724736    1.116107   -1.951431
 H     -4.089644   -1.235378   -2.755137
 H     -3.251920   -3.124022   -1.350776
 C     -2.030969   -2.898367    1.010092
 N     -1.043201    2.043452    0.393936
 N     -2.233189   -0.569553    0.499611
 C      0.845401    3.524891    0.490546
 H     -1.060310    5.288488    1.097457
 C      2.000351    3.816292    0.353968
 H      3.028830    4.070849    0.236966
 C     -1.755878   -3.825293    1.718057
 H     -1.500208   -4.640873    2.356573
