49

 Si     0.388269   -1.269411   -1.091371
 O     -1.196414   -1.659408   -1.235656
 C     -2.344473   -1.682099   -0.454533
 C     -2.254134   -0.557536    0.539779
 H     -3.180847   -1.481245   -1.132914
 C     -1.461482   -0.663012    1.669258
 C     -2.804808    0.671633    0.219668
 C     -1.168909    0.451878    2.431388
 H     -1.042870   -1.619226    1.942367
 C     -2.513023    1.794776    0.972538
 H     -3.450671    0.760251   -0.642692
 C     -1.677422    1.690828    2.073459
 H     -0.545237    0.349924    3.314143
 H     -2.946369    2.753613    0.703424
 H     -1.450961    2.569624    2.670796
 C     -2.545433   -3.050976    0.150600
 C     -2.663763   -4.073766   -0.900701
 H     -3.454895   -3.060619    0.764220
 H     -1.699964   -3.303020    0.787663
 C     -2.756996   -4.896172   -1.770355
 H     -2.848512   -5.640866   -2.524653
 Cl     0.876574   -1.595583   -3.009952
 Cl     0.898770   -2.647964    0.288657
 O     -0.155532    0.235549   -0.491841
 O      1.975928   -0.410937   -0.961405
 C      1.229815    1.972975   -0.138529
 C      1.972049    1.097109    0.761878
 C      3.337965   -0.827740    0.834044
 C     -0.422754    2.044171   -1.830215
 C     -0.106297    3.373002   -2.085335
 C      1.559958    3.292227   -0.361074
 C      0.874098    4.001786   -1.339658
 C      2.342268    1.449325    2.038457
 C      3.206507    0.620370    2.745101
 C      3.729569   -0.497825    2.127802
 H      2.367008    3.738558    0.206280
 H      1.127293    5.040103   -1.536551
 H      1.953567    2.366084    2.463380
 H      3.496725    0.872389    3.761308
 H      4.452376   -1.139528    2.617056
 C      3.914169   -1.906194    0.093697
 N      0.242029    1.410548   -0.845035
 N      2.414236   -0.058113    0.221767
 C     -1.384447    1.286356   -2.560719
 H     -0.643188    3.882150   -2.876894
 C     -2.152297    0.622643   -3.197961
 H     -2.830693    0.026775   -3.766429
 C      4.438116   -2.777537   -0.541620
 H      4.905102   -3.555869   -1.102638
