49

 Si    -0.880487    1.378865    1.312944
 O      0.250829    1.861145    0.273029
 C      1.629334    1.835030    0.251945
 C      2.084353    0.598880   -0.477593
 H      2.014007    1.818446    1.274781
 C      1.250306    0.023824   -1.420265
 C      3.337692    0.048380   -0.249332
 C      1.653270   -1.096947   -2.126078
 H      0.279906    0.459167   -1.586408
 C      3.748009   -1.073156   -0.953476
 H      3.996691    0.495630    0.486454
 C      2.906297   -1.648802   -1.895097
 H      0.990550   -1.535841   -2.865850
 H      4.730269   -1.498299   -0.765984
 H      3.229352   -2.524854   -2.450676
 C      2.113363    3.088440   -0.441623
 C      1.703390    4.298206    0.288214
 H      3.206093    3.079207   -0.532633
 H      1.690205    3.115427   -1.447833
 C      1.362220    5.272781    0.900445
 H      1.072192    6.144791    1.436843
 Cl    -0.062332    2.085083    3.053295
 Cl    -2.683301    2.254579    1.541995
 O     -1.470858    0.555510   -0.224362
 O     -0.820410   -0.237924    1.886483
 C     -2.461855   -1.435296    0.147437
 C     -1.102787   -1.923803    0.368956
 C      0.968529   -1.599116    1.458418
 C     -3.695415    0.360253   -0.757175
 C     -4.851178   -0.414807   -0.706364
 C     -3.584797   -2.228288    0.208251
 C     -4.805325   -1.696198   -0.194239
 C     -0.622028   -3.045640   -0.266972
 C      0.687464   -3.448229   -0.039854
 C      1.477980   -2.727399    0.829676
 H     -3.493828   -3.246980    0.564542
 H     -5.708480   -2.297541   -0.139853
 H     -1.273374   -3.584995   -0.942713
 H      1.083469   -4.327041   -0.540593
 H      2.497522   -3.013220    1.051437
 C      1.715044   -0.848990    2.413531
 N     -2.554101   -0.156410   -0.261697
 N     -0.301046   -1.226046    1.190289
 C     -3.643292    1.651532   -1.370115
 H     -5.768743    0.020095   -1.084117
 C     -3.608502    2.708268   -1.935613
 H     -3.585738    3.650002   -2.437054
 C      2.365078   -0.254916    3.226535
 H      2.934462    0.287196    3.948072
