49

 Si     0.290284    0.792897   -0.296198
 O      1.336802   -0.163211    0.515964
 C      1.893002   -1.407570    0.353066
 C      3.350591   -1.267838    0.018568
 H      1.395986   -1.930861   -0.462593
 C      4.066601   -0.218549    0.571189
 C      3.990227   -2.165412   -0.823646
 C      5.411060   -0.056858    0.281440
 H      3.556518    0.478142    1.220706
 C      5.338464   -2.011743   -1.113719
 H      3.437077   -2.990310   -1.259158
 C      6.050884   -0.956436   -0.562844
 H      5.961899    0.771999    0.716421
 H      5.832661   -2.718323   -1.774603
 H      7.105937   -0.833988   -0.790929
 C      1.698137   -2.185143    1.636197
 C      0.282288   -2.442568    1.949793
 H      2.217149   -3.149913    1.585383
 H      2.136680   -1.611627    2.454368
 C     -0.865617   -2.674835    2.216889
 H     -1.864001   -2.915018    2.487493
 Cl     0.859761    2.405469    0.787578
 Cl     0.916987    0.509758   -2.189038
 O     -1.114593    1.669364   -1.003801
 O     -0.935797   -0.250339    0.303778
 C     -2.820940    1.678510    0.505681
 C     -3.121306    0.340553   -0.000377
 C     -2.277003   -1.687361   -0.859157
 C     -1.723531    3.686513   -0.086955
 C     -2.462273    4.369416    0.875004
 C     -3.557655    2.323790    1.470441
 C     -3.348267    3.683702    1.680721
 C     -4.401933    0.002100   -0.380921
 C     -4.627253   -1.212465   -1.015296
 C     -3.558572   -2.047838   -1.266468
 H     -4.292351    1.764504    2.036210
 H     -3.910854    4.209663    2.447108
 H     -5.203163    0.709248   -0.208802
 H     -5.629402   -1.489022   -1.330982
 H     -3.676509   -2.995677   -1.777514
 C     -1.152777   -2.532851   -1.107159
 N     -1.880752    2.351591   -0.187059
 N     -2.104918   -0.511524   -0.221953
 C     -0.843216    4.329619   -1.010967
 H     -2.313576    5.438741    0.964313
 C     -0.138565    4.870776   -1.815901
 H      0.488509    5.357372   -2.529184
 C     -0.287524   -3.315323   -1.383123
 H      0.494841   -4.001127   -1.619963
