49

 Si     0.177184   -0.042811    1.504653
 O      0.569285   -1.015970    0.267272
 C      1.817485   -1.531842   -0.074561
 C      2.762897   -0.378566   -0.231760
 H      2.168572   -2.187099    0.727013
 C      2.461041    0.621829   -1.143466
 C      3.895282   -0.266014    0.558779
 C      3.290193    1.718912   -1.279722
 H      1.564162    0.542803   -1.739216
 C      4.728179    0.836609    0.431325
 H      4.127342   -1.037422    1.284824
 C      4.429406    1.827844   -0.490309
 H      3.053847    2.485765   -2.010382
 H      5.613972    0.917859    1.054667
 H      5.087187    2.686040   -0.596811
 C      1.656257   -2.326912   -1.346441
 C      0.817731   -3.525347   -1.170165
 H      2.637475   -2.653349   -1.712795
 H      1.208832   -1.688368   -2.108882
 C      0.158896   -4.520752   -1.035769
 H     -0.398413   -5.419616   -0.926956
 Cl     0.931912    1.665046    2.266576
 Cl     0.841143   -1.214338    3.045807
 O     -0.449062    0.969932    0.089138
 O     -1.478347   -0.387409    1.755392
 C     -2.651741    1.364784    0.231649
 C     -2.738621   -0.052454   -0.106696
 C     -2.038335   -2.232584    0.479489
 C     -1.140658    3.171195    0.287864
 C     -2.212677    4.039766    0.503351
 C     -3.728344    2.191255    0.432400
 C     -3.498601    3.554546    0.605148
 C     -3.409180   -0.519231   -1.207580
 C     -3.371308   -1.883364   -1.488586
 C     -2.692742   -2.733037   -0.644727
 H     -4.725409    1.768083    0.447712
 H     -4.328718    4.232238    0.783503
 H     -3.936762    0.181656   -1.842340
 H     -3.882577   -2.274569   -2.364233
 H     -2.654729   -3.801015   -0.813878
 C     -1.413483   -3.081595    1.434770
 N     -1.392926    1.850736    0.229860
 N     -2.066973   -0.904675    0.687025
 C      0.186576    3.652304    0.056599
 H     -1.992829    5.098048    0.577203
 C      1.260651    4.131003   -0.177245
 H      2.218258    4.552875   -0.380362
 C     -0.944136   -3.853834    2.221820
 H     -0.517191   -4.528959    2.929042
