49

 Si     0.027138    0.135004   -1.875867
 O     -0.889583   -0.686345   -0.833478
 C     -1.589066   -0.443813    0.332814
 C     -2.993823   -0.956242    0.177505
 H     -1.619445    0.627177    0.537769
 C     -3.255943   -1.969709   -0.728626
 C     -4.028113   -0.438000    0.946927
 C     -4.543499   -2.461657   -0.876568
 H     -2.448867   -2.356194   -1.332653
 C     -5.316472   -0.930174    0.806035
 H     -3.827762    0.353548    1.661402
 C     -5.576626   -1.943332   -0.107160
 H     -4.740252   -3.251273   -1.595960
 H     -6.120627   -0.519879    1.410413
 H     -6.586274   -2.328194   -0.219972
 C     -0.883857   -1.143756    1.479119
 C      0.249778   -0.384260    2.031565
 H     -1.579828   -1.311639    2.308153
 H     -0.548675   -2.118861    1.126452
 C      1.123304    0.261769    2.543933
 H      1.879646    0.817645    3.039381
 Cl    -0.368710    1.879577   -2.810674
 Cl    -0.351541   -1.068115   -3.485124
 O      0.528476    1.036608   -0.376400
 O      1.659002   -0.372319   -1.832317
 C      2.710255    1.637944   -0.425122
 C      2.968368    0.244660   -0.075067
 C      2.201232   -1.979763   -0.288844
 C      1.005027    3.270416   -0.379624
 C      1.962243    4.270152   -0.525441
 C      3.679765    2.603002   -0.574313
 C      3.295569    3.936897   -0.661106
 C      3.801439   -0.109900    0.960910
 C      3.830595   -1.432952    1.384455
 C      3.008168   -2.359790    0.777918
 H      4.719750    2.302598   -0.612026
 H      4.043652    4.713215   -0.795008
 H      4.383495    0.657486    1.454840
 H      4.471899   -1.727217    2.210898
 H      2.972980   -3.394525    1.096703
 C      1.344334   -2.886535   -0.977755
 N      1.406534    1.985093   -0.407733
 N      2.240741   -0.696490   -0.695850
 C     -0.381372    3.532815   -0.142508
 H      1.623967    5.299384   -0.527321
 C     -1.531896    3.761328    0.105302
 H     -2.554937    3.974524    0.320941
 C      0.621638   -3.669330   -1.526949
 H     -0.021827   -4.360576   -2.023967
