49

 Si     1.104816   -1.320508    1.196038
 O     -0.054900   -1.890638    0.234387
 C     -1.427723   -1.990869    0.318448
 C     -2.049493   -0.781964   -0.329070
 H     -1.731149   -2.040110    1.367258
 C     -1.351345   -0.107395   -1.315207
 C     -3.322758   -0.353884    0.019464
 C     -1.909079    0.991633   -1.945754
 H     -0.363628   -0.447910   -1.574488
 C     -3.887900    0.745098   -0.608990
 H     -3.875748   -0.879098    0.790191
 C     -3.181915    1.421106   -1.594393
 H     -1.351647    1.509794   -2.720262
 H     -4.884750    1.073671   -0.327821
 H     -3.626149    2.279699   -2.090322
 C     -1.848576   -3.263119   -0.381889
 C     -1.279695   -4.450469    0.274601
 H     -2.941505   -3.351533   -0.394370
 H     -1.500697   -3.222759   -1.416055
 C     -0.809331   -5.406847    0.826962
 H     -0.404499   -6.263385    1.311436
 Cl     0.500254   -2.142230    2.972918
 Cl     2.993895   -2.025939    1.254062
 O      1.485894   -0.407409   -0.355153
 O      0.943069    0.268499    1.824339
 C      2.326511    1.654702    0.001267
 C      0.953538    2.014030    0.348427
 C     -0.987653    1.471932    1.581774
 C      3.630739    0.001794   -1.062354
 C      4.714316    0.875939   -1.081654
 C      3.376913    2.543746   -0.005201
 C      4.600317    2.134461   -0.525034
 C      0.325933    3.104496   -0.209516
 C     -0.991824    3.379471    0.131221
 C     -1.643892    2.565386    1.032764
 H      3.228039    3.540170    0.392242
 H      5.448899    2.812823   -0.524973
 H      0.870390    3.718735   -0.915243
 H     -1.503234    4.231164   -0.308075
 H     -2.664271    2.750142    1.341048
 C     -1.585519    0.630291    2.564755
 N      2.494919    0.400731   -0.457347
 N      0.284639    1.223548    1.203973
 C      3.639141   -1.273197   -1.710500
 H      5.630884    0.535136   -1.548039
 C      3.647642   -2.314893   -2.304189
 H      3.663287   -3.242596   -2.831455
 C     -2.112935   -0.044214    3.403418
 H     -2.572218   -0.657230    4.146359
