47

 Si     1.180204   -1.593504    0.690174
 O     -0.377390   -1.331304    1.014196
 C     -1.570947   -1.892066    0.559017
 C     -2.160790   -0.875197   -0.375085
 H     -1.339508   -2.794253   -0.009920
 C     -1.413046   -0.552043   -1.500956
 C     -3.360250   -0.222343   -0.151039
 C     -1.855092    0.407087   -2.391628
 H     -0.482101   -1.068416   -1.677225
 C     -3.814200    0.738956   -1.045811
 H     -3.957993   -0.461900    0.719055
 C     -3.062975    1.057858   -2.165595
 H     -1.263945    0.641309   -3.272106
 H     -4.761647    1.238324   -0.862213
 H     -3.419851    1.806972   -2.867014
 C     -2.405375   -2.284689    1.747980
 C     -1.651285   -3.206981    2.607886
 H     -3.330357   -2.771365    1.415550
 H     -2.677251   -1.408113    2.332936
 C     -1.004747   -3.947423    3.295871
 H     -0.448451   -4.613280    3.912332
 Cl     2.640412   -2.047107    1.990518
 Cl     1.042262   -3.364154   -0.301354
 O      1.683839   -0.822571   -0.769037
 O      1.359154    0.105410    1.341749
 C      2.281223    1.375390   -0.654162
 C      0.908693    1.647210   -0.237913
 C     -0.632792    1.229152    1.483143
 C      3.881912   -0.293187   -1.107413
 C      4.869019    0.667708   -1.244832
 C      3.235805    2.362202   -0.801640
 C      4.543367    2.006190   -1.093813
 C      0.070375    2.578889   -0.808954
 C     -1.160930    2.823945   -0.221027
 C     -1.503355    2.161622    0.943490
 H      2.945578    3.396055   -0.658571
 H      5.308792    2.770680   -1.197212
 H      0.390908    3.099832   -1.703291
 H     -1.840598    3.549238   -0.657031
 H     -2.434856    2.352045    1.462058
 N      2.623737    0.088507   -0.810633
 N      0.526467    0.974390    0.859351
 H      5.876204    0.339396   -1.475709
 C      4.136373   -1.695309   -1.302231
 C     -0.874980    0.562795    2.728207
 N     -1.086029    0.067462    3.743407
 N      4.386418   -2.803418   -1.483505
