47

 Si    -0.179285   -0.737329    1.169185
 O      1.379185   -0.494853    0.965088
 C      2.507151   -1.305603    0.700099
 C      3.343503   -0.581259   -0.302845
 H      2.155206   -2.247712    0.272200
 C      3.879202    0.659714    0.014152
 C      3.548765   -1.112431   -1.568411
 C      4.611540    1.366608   -0.923245
 H      3.715989    1.078030    0.997137
 C      4.289105   -0.410732   -2.509764
 H      3.134796   -2.081953   -1.824229
 C      4.819697    0.829794   -2.188935
 H      5.025986    2.336706   -0.665049
 H      4.450495   -0.836281   -3.496163
 H      5.399128    1.380627   -2.924797
 C      3.210028   -1.585734    2.006821
 C      2.356565   -2.376311    2.911235
 H      3.467421   -0.639992    2.485647
 H      4.137808   -2.139771    1.818923
 C      1.635077   -3.022869    3.620694
 H      1.004087   -3.597470    4.256492
 Cl    -0.783828   -0.223228    2.985744
 Cl    -0.729334   -2.532232    0.521203
 O     -0.767094    0.387445    0.042028
 O     -3.091322   -0.501836    1.099865
 C     -2.683440    1.564426   -0.302830
 C     -3.183696    0.363505   -0.964992
 C     -3.916098   -1.831534   -0.572996
 C     -0.878994    2.533514    0.874853
 C     -1.586025    3.710333    1.027833
 C     -3.407948    2.734341   -0.181970
 C     -2.866402    3.809811    0.501610
 C     -3.465073    0.254852   -2.310117
 C     -3.972210   -0.934054   -2.808087
 C     -4.202067   -1.972578   -1.921684
 H     -4.399455    2.774345   -0.616842
 H     -3.434555    4.729088    0.617383
 H     -3.276283    1.108882   -2.951410
 H     -4.193402   -1.046599   -3.863933
 H     -4.613744   -2.921464   -2.248814
 N     -1.460039    1.486990    0.247103
 N     -3.388591   -0.666965   -0.096362
 H     -1.108350    4.532252    1.548624
 C      0.480900    2.397535    1.324751
 C     -4.163045   -2.871355    0.391051
 N     -4.371076   -3.704922    1.156613
 N      1.569722    2.338269    1.687143
