47

 Si     0.211802   -0.178789    1.448086
 O      0.434893   -1.049597    0.106039
 C      1.549349   -1.804774   -0.279123
 C      2.772390   -0.962141   -0.085550
 H      1.608429   -2.696814    0.350111
 C      2.796899    0.315883   -0.625303
 C      3.847985   -1.412585    0.662351
 C      3.886208    1.142052   -0.423050
 H      1.948298    0.665773   -1.192942
 C      4.946000   -0.588785    0.865876
 H      3.827300   -2.405397    1.098257
 C      4.966022    0.687554    0.324928
 H      3.892200    2.142623   -0.842466
 H      5.785510   -0.946075    1.455356
 H      5.824248    1.333479    0.487381
 C      1.344626   -2.204479   -1.719014
 C      0.226667   -3.147764   -1.899357
 H      2.251446   -2.684977   -2.106881
 H      1.159166   -1.307466   -2.311254
 C     -0.660606   -3.943219   -2.052781
 H     -1.410201   -4.681586   -2.206118
 Cl     1.129321    1.393665    2.307574
 Cl     0.715084   -1.526618    2.876713
 O     -0.356444    1.047210    0.100349
 O     -1.478428   -0.316430    1.690509
 C     -2.448766    1.781464    0.468373
 C     -2.810532    0.440874    0.016162
 C     -2.335718   -1.856818    0.200535
 C     -0.653213    3.294644    0.490483
 C     -1.512381    4.318553    0.865246
 C     -3.335084    2.770549    0.835680
 C     -2.854403    4.051335    1.072995
 C     -3.657080    0.212377   -1.045577
 C     -3.834803   -1.086272   -1.501477
 C     -3.166642   -2.122499   -0.876872
 H     -4.386986    2.526077    0.928229
 H     -3.530564    4.843836    1.380691
 H     -4.146462    1.055291   -1.518482
 H     -4.489836   -1.286622   -2.345229
 H     -3.274035   -3.152179   -1.193026
 N     -1.130025    2.040485    0.368980
 N     -2.185055   -0.586205    0.610588
 H     -1.099416    5.314949    0.976161
 C      0.719575    3.532245    0.127851
 C     -1.676021   -2.913115    0.910697
 N     -1.197321   -3.822977    1.424866
 N      1.786601    3.773261   -0.226564
