47

 Si    -0.215143   -0.717301   -1.708159
 O     -0.424548   -1.397519   -0.287562
 C     -1.265169   -1.191886    0.829049
 C     -2.602516   -0.729465    0.349096
 H     -0.810889   -0.418674    1.446082
 C     -3.279803   -1.471702   -0.609064
 C     -3.143990    0.459826    0.807691
 C     -4.486586   -1.024465   -1.113262
 H     -2.853455   -2.398549   -0.968232
 C     -4.356352    0.911345    0.307398
 H     -2.613314    1.047063    1.546255
 C     -5.027192    0.171515   -0.654240
 H     -5.006471   -1.607452   -1.867781
 H     -4.768433    1.849909    0.665444
 H     -5.974580    0.526095   -1.050484
 C     -1.317971   -2.497035    1.581714
 C     -0.032509   -2.840494    2.215285
 H     -1.605274   -3.295223    0.895582
 H     -2.076501   -2.438485    2.372534
 C      0.997718   -3.124803    2.763948
 H      1.877159   -3.408600    3.289222
 Cl    -1.174230    0.935816   -2.230748
 Cl    -0.429484   -2.007511   -3.201212
 O      0.375484    1.110186    0.389383
 O      1.447559   -0.405284   -1.650019
 C      2.268935    1.823221   -0.566323
 C      2.761515    0.545571   -0.060102
 C      2.464426   -1.792981   -0.090894
 C      0.395065    3.232571   -0.471575
 C      1.092209    4.201219   -1.179761
 C      2.988730    2.762874   -1.268829
 C      2.390358    3.970613   -1.598157
 C      3.677454    0.438877    0.963118
 C      3.990434   -0.812239    1.471555
 C      3.375547   -1.932639    0.941274
 H      4.011518    2.534428   -1.548368
 H      2.933604    4.724600   -2.158021
 H      4.121564    1.344697    1.358131
 H      4.708099   -0.912641    2.281548
 H      3.587785   -2.932697    1.297739
 N      0.976806    2.035803   -0.193102
 N      2.185295   -0.561721   -0.560188
 H      0.582202    5.135874   -1.387009
 C     -0.945983    3.424918    0.014413
 C      1.840291   -2.941931   -0.681518
 N      1.372397   -3.904710   -1.100429
 N     -2.011761    3.578988    0.418582
