47

 Si    -0.253836   -1.609930   -0.037002
 O      0.878519   -0.485182    0.176464
 C      1.954446   -0.320853    1.052205
 C      3.199298   -0.419245    0.228898
 H      1.930966   -1.132287    1.782852
 C      3.343927   -1.563916   -0.545610
 C      4.163057    0.572215    0.160660
 C      4.428826   -1.713224   -1.387362
 H      2.596477   -2.341548   -0.483437
 C      5.259344    0.424565   -0.678157
 H      4.078529    1.466224    0.764245
 C      5.391566   -0.713259   -1.456966
 H      4.527210   -2.612512   -1.988064
 H      6.011815    1.206743   -0.721082
 H      6.247822   -0.826079   -2.115795
 C      1.743149    0.981233    1.781919
 C      0.400107    1.023113    2.381043
 H      1.851397    1.822912    1.100410
 H      2.489583    1.102635    2.575381
 C     -0.702995    1.033606    2.854201
 H     -1.660330    1.046571    3.314763
 Cl    -0.415044   -2.877632   -1.588355
 Cl     0.275914   -2.931553    1.413798
 O     -1.713906   -1.250550    0.800707
 O     -0.924026   -0.375261   -1.207423
 C     -3.196746    0.155367   -0.216811
 C     -2.159754    1.181515   -0.152270
 C     -0.010488    1.709305   -0.941756
 C     -3.705916   -2.123182    0.099046
 C     -4.960665   -1.937073   -0.455927
 C     -4.446264    0.381561   -0.759099
 C     -5.335683   -0.674429   -0.885622
 C     -2.319719    2.448357    0.365120
 C     -1.282052    3.359910    0.239877
 C     -0.132173    2.994805   -0.437953
 H     -4.695122    1.379126   -1.100405
 H     -6.316697   -0.514390   -1.324949
 H     -3.249485    2.704324    0.859267
 H     -1.380348    4.361280    0.649769
 H      0.685949    3.687588   -0.598677
 N     -2.861939   -1.076535    0.195109
 N     -1.009404    0.834713   -0.751224
 H     -5.620644   -2.794043   -0.530799
 C     -3.268851   -3.393884    0.611766
 C      1.115843    1.273954   -1.713605
 N      2.018331    0.960881   -2.351820
 N     -2.969989   -4.425935    1.022671
