47

 Si     0.168187   -0.727855   -1.178705
 O     -1.388315   -0.483278   -0.962229
 C     -2.514661   -1.294285   -0.690751
 C     -3.340076   -0.575352    0.325045
 H     -2.159418   -2.239563   -0.272732
 C     -3.872765    0.670585    0.022783
 C     -3.538304   -1.116742    1.587388
 C     -4.595112    1.372371    0.971688
 H     -3.714445    1.096883   -0.957564
 C     -4.268915   -0.420256    2.540162
 H     -3.126455   -2.090128    1.831715
 C     -4.796398    0.825314    2.234110
 H     -5.007180    2.346484    0.725068
 H     -4.425136   -0.853840    3.523892
 H     -5.368037    1.372161    2.978984
 C     -3.231149   -1.564687   -1.992111
 C     -2.387026   -2.348098   -2.911418
 H     -3.492898   -0.615203   -2.461136
 H     -4.157222   -2.119793   -1.799167
 C     -1.672528   -2.989167   -3.632830
 H     -1.047886   -3.558758   -4.279314
 Cl     0.760750   -0.199580   -2.995162
 Cl     0.718814   -2.529185   -0.549439
 O      0.766689    0.386130   -0.046230
 O      3.079587   -0.500277   -1.128261
 C      2.688639    1.555482    0.294567
 C      3.191205    0.347923    0.942752
 C      3.913808   -1.846008    0.526961
 C      0.878084    2.538788   -0.861544
 C      1.586925    3.715077   -1.010170
 C      3.415183    2.724569    0.177992
 C      2.871402    3.807038   -0.492653
 C      3.482269    0.227150    2.284805
 C      3.989729   -0.967312    2.768908
 C      4.209705   -1.999114    1.872173
 H      4.410040    2.758500    0.605665
 H      3.441080    4.725770   -0.605169
 H      3.300910    1.076306    2.934652
 H      4.218792   -1.089304    3.822028
 H      4.621227   -2.951765    2.188372
 N      1.461101    1.485495   -0.247079
 N      3.385959   -0.676032    0.064183
 H      1.107580    4.542422   -1.520722
 C     -0.485378    2.410098   -1.302709
 C      4.149632   -2.878752   -0.447416
 N      4.348752   -3.706993   -1.221080
 N     -1.576743    2.356781   -1.658302
