47

 Si     0.241400   -1.345409   -1.520505
 O     -1.313513   -1.631762   -1.714805
 C     -2.443939   -1.691471   -0.866331
 C     -2.229408   -0.684674    0.227590
 H     -3.285937   -1.380461   -1.491426
 C     -1.449870   -0.977751    1.334345
 C     -2.677259    0.613077    0.042611
 C     -1.090971    0.017026    2.224026
 H     -1.102737   -1.987205    1.498306
 C     -2.311860    1.617402    0.921850
 H     -3.310671    0.843905   -0.803412
 C     -1.507276    1.322326    2.011349
 H     -0.485702   -0.232303    3.089354
 H     -2.668177    2.631047    0.762483
 H     -1.231008    2.106380    2.710527
 C     -2.655135   -3.113323   -0.411232
 C     -2.882323   -4.003839   -1.559942
 H     -3.519345   -3.161241    0.263219
 H     -1.778820   -3.461928    0.135450
 C     -3.059138   -4.717859   -2.508401
 H     -3.223159   -5.365312   -3.337541
 Cl     1.095045   -1.088437   -3.282821
 Cl     1.078932   -2.722553   -0.360397
 O      0.186998    0.070648   -0.612383
 O      2.727684   -0.090462   -0.960630
 C      1.394416    1.899569   -0.079510
 C      2.088100    1.041029    0.871674
 C      3.531962   -0.800160    1.057911
 C     -0.195061    1.987983   -1.822533
 C      0.059274    3.333336   -2.010098
 C      1.654976    3.247923   -0.229000
 C      0.991440    3.971289   -1.205151
 C      2.100128    1.227655    2.237990
 C      2.830002    0.369623    3.041855
 C      3.552865   -0.643089    2.433884
 H      2.396948    3.704484    0.414916
 H      1.199309    5.029199   -1.341800
 H      1.523081    2.045642    2.652650
 H      2.845190    0.492559    4.119409
 H      4.158853   -1.336380    3.007418
 N      0.488697    1.309437   -0.876757
 N      2.784871    0.032016    0.276040
 H     -0.492180    3.855814   -2.783272
 C     -1.198667    1.298106   -2.584552
 C      4.297332   -1.811173    0.377156
 N      4.920684   -2.616000   -0.159262
 N     -2.036028    0.795317   -3.190249
