47

 Si     1.134762   -1.455187    1.198843
 O     -0.037790   -1.967422    0.232153
 C     -1.411403   -2.089424    0.345317
 C     -2.054153   -0.868349   -0.256003
 H     -1.688822   -2.171237    1.399530
 C     -1.384623   -0.167547   -1.244255
 C     -3.315254   -0.448768    0.143838
 C     -1.958033    0.950345   -1.825631
 H     -0.407210   -0.503813   -1.545153
 C     -3.895544    0.669490   -0.435055
 H     -3.842288   -0.991146    0.921290
 C     -3.218121    1.372370   -1.422010
 H     -1.424695    1.487859   -2.604009
 H     -4.880841    0.993594   -0.110957
 H     -3.674989    2.246130   -1.878623
 C     -1.831183   -3.347818   -0.377888
 C     -1.212892   -4.538754    0.224123
 H     -1.523376   -3.271850   -1.422876
 H     -2.922028   -3.457628   -0.350638
 C     -0.698661   -5.496800    0.732418
 H     -0.255198   -6.356243    1.176657
 Cl     0.578798   -2.261193    2.978962
 Cl     3.024607   -2.150639    1.165414
 O      1.507741   -0.480601   -0.376916
 O      0.982513    0.147140    1.819347
 C      2.364918    1.567794    0.008589
 C      1.002160    1.931117    0.389897
 C     -0.934017    1.369609    1.602054
 C      3.638804   -0.064469   -1.101761
 C      4.730973    0.787984   -1.130600
 C      3.430538    2.446690   -0.001260
 C      4.638618    2.041441   -0.547281
 C      0.372643    3.048075   -0.127009
 C     -0.934847    3.324837    0.229810
 C     -1.590820    2.480081    1.109022
 H      3.298216    3.436088    0.420370
 H      5.492886    2.712359   -0.549966
 H      0.918885    3.682043   -0.814404
 H     -1.442276    4.195371   -0.175911
 H     -2.609192    2.657318    1.430417
 N      2.507483    0.322751   -0.477827
 N      0.337195    1.117960    1.221791
 H      5.633838    0.445309   -1.623478
 C      3.617064   -1.330452   -1.785633
 C     -1.552814    0.485138    2.547702
 N     -2.115462   -0.194635    3.284414
 N      3.603889   -2.304918   -2.396816
