65

 Si    -0.399476    0.109618    1.629625
 O      0.714296    0.856172    0.714740
 C      1.043559    1.918923   -0.090135
 C      1.618434    1.372901   -1.367259
 H      1.808825    2.506687    0.430921
 C      0.812334    0.634931   -2.219376
 C      2.948943    1.576069   -1.702029
 C      1.317489    0.117503   -3.398498
 H     -0.213637    0.465143   -1.945131
 C      3.467129    1.049577   -2.877569
 H      3.588367    2.160721   -1.049843
 C      2.650868    0.322763   -3.730744
 H      0.670459   -0.444541   -4.065259
 H      4.510564    1.217363   -3.130127
 H      3.051505   -0.079358   -4.657273
 C     -0.154898    2.800432   -0.350721
 C     -0.792717    3.238708    0.896301
 H     -0.886057    2.245348   -0.928628
 H      0.146162    3.679107   -0.932692
 C     -1.314558    3.576187    1.922804
 H     -1.776523    3.866347    2.836376
 Cl     0.495540    0.619094    3.390558
 Cl    -2.273540    0.159319    2.386385
 O     -1.118596   -0.177368   -0.012625
 O      0.143658   -1.496401    1.540866
 C     -1.242316   -2.376157   -0.455192
 C      0.206105   -2.258749   -0.589915
 C      2.181564   -1.507518    0.468662
 C     -3.220555   -1.097150   -0.297105
 C     -3.963198   -2.268354   -0.448640
 C     -1.943938   -3.540713   -0.617711
 C     -3.337333   -3.486131   -0.582271
 C      0.891915   -2.608684   -1.719900
 C      2.264391   -2.368746   -1.768911
 C      2.897495   -1.808932   -0.685989
 H     -1.406423   -4.467757   -0.773347
 H     -3.922760   -4.394152   -0.697374
 H      0.355438   -3.037134   -2.556499
 H      2.829620   -2.630389   -2.658028
 H      3.964886   -1.632278   -0.679928
 N     -1.885681   -1.208992   -0.238408
 N      0.864129   -1.729592    0.456294
 H     -5.041555   -2.181412   -0.480346
 C     -3.826921    0.232636   -0.252225
 C     -3.286555    1.254068   -1.016825
 C     -4.955615    0.462883    0.525521
 C     -3.854874    2.513842   -0.989054
 H     -2.429532    1.057128   -1.638790
 C     -5.519660    1.724420    0.560389
 H     -5.377957   -0.335965    1.122056
 C     -4.966739    2.752163   -0.193695
 H     -3.431769    3.311978   -1.590796
 H     -6.394422    1.907430    1.177303
 H     -5.411252    3.743377   -0.166690
 C      2.807130   -1.044172    1.701801
 C      2.637830   -1.777640    2.866006
 C      3.605948    0.087928    1.686573
 C      3.272662   -1.372835    4.024671
 H      2.016503   -2.661299    2.864714
 C      4.224632    0.502606    2.850547
 H      3.725932    0.648407    0.771337
 C      4.060326   -0.230548    4.018388
 H      3.151571   -1.950133    4.935884
 H      4.844823    1.393669    2.846438
 H      4.558024    0.087651    4.930391
