65

 Si    -0.900745    0.310931    0.918577
 O      0.678370    0.651840    0.910825
 C      1.382563    1.826514    0.675683
 C      1.959509    1.681101   -0.702992
 H      0.681423    2.662758    0.670855
 C      1.051154    1.521495   -1.742000
 C      3.313861    1.645246   -0.981745
 C      1.485350    1.322026   -3.037825
 H     -0.003963    1.558723   -1.525079
 C      3.758831    1.446711   -2.283023
 H      4.037925    1.783650   -0.190240
 C      2.847415    1.281055   -3.313039
 H      0.761852    1.207367   -3.839271
 H      4.825610    1.425068   -2.488370
 H      3.195712    1.128579   -4.330764
 C      2.360213    2.042942    1.798215
 C      1.675982    1.982791    3.096228
 H      2.853261    3.016565    1.691602
 H      3.125481    1.274336    1.788027
 C      1.105608    1.908252    4.149293
 H      0.609654    1.860120    5.089278
 Cl    -1.952472   -0.547350    2.412176
 Cl    -1.640254    2.203548    1.132356
 O     -1.569859    0.199441   -0.649229
 O     -0.351443   -1.349141    0.588207
 C     -1.550040   -1.905839   -1.509941
 C     -0.101458   -1.748587   -1.590164
 C      1.813073   -1.526602   -0.213573
 C     -3.573042   -0.898327   -0.802789
 C     -4.257801   -2.060285   -1.143409
 C     -2.204238   -3.052154   -1.882008
 C     -3.580816   -3.133434   -1.680464
 C      0.642647   -1.921784   -2.720101
 C      2.032756   -1.879246   -2.595937
 C      2.597968   -1.712327   -1.359286
 H     -1.636499   -3.874014   -2.299194
 H     -4.117528   -4.038074   -1.953778
 H      0.150183   -2.099082   -3.667932
 H      2.663652   -2.014473   -3.469183
 H      3.670130   -1.742926   -1.240370
 N     -2.242952   -0.884865   -0.975475
 N      0.489321   -1.508829   -0.399097
 H     -5.330519   -2.079077   -0.996914
 C     -4.221790    0.315897   -0.309539
 C     -4.050352    1.504360   -1.003476
 C     -5.029493    0.263728    0.817853
 C     -4.690209    2.648752   -0.567853
 H     -3.420342    1.533002   -1.880418
 C     -5.653078    1.414532    1.263468
 H     -5.151890   -0.667443    1.357412
 C     -5.485656    2.605245    0.568905
 H     -4.565964    3.578098   -1.114525
 H     -6.275205    1.381744    2.152653
 H     -5.983864    3.506796    0.914856
 C      2.389139   -1.405592    1.122027
 C      1.668179   -1.734750    2.260963
 C      3.709485   -0.981338    1.255372
 C      2.241506   -1.612330    3.511422
 H      0.659818   -2.091845    2.177644
 C      4.286610   -0.862182    2.504014
 H      4.292391   -0.719811    0.384895
 C      3.549189   -1.170699    3.639238
 H      1.661219   -1.871214    4.391517
 H      5.315067   -0.524556    2.591791
 H      3.999363   -1.075036    4.623652
