65

 Si     0.150519    0.106273   -1.454259
 O      0.140034   -0.957022   -0.232172
 C     -0.816660   -1.251126    0.717056
 C     -1.365338   -2.631964    0.484001
 H     -1.635614   -0.534504    0.649439
 C     -0.653607   -3.538093   -0.281810
 C     -2.581730   -3.010187    1.040077
 C     -1.149258   -4.814527   -0.499277
 H      0.280366   -3.232726   -0.725018
 C     -3.079769   -4.285877    0.828776
 H     -3.145397   -2.304027    1.640235
 C     -2.363120   -5.192018    0.057748
 H     -0.585900   -5.514713   -1.109114
 H     -4.032078   -4.573297    1.265521
 H     -2.753598   -6.191673   -0.110830
 C     -0.190485   -1.136820    2.090638
 C      0.023762    0.252614    2.526327
 H      0.759392   -1.670879    2.084999
 H     -0.831743   -1.613177    2.840550
 C      0.142122    1.379189    2.925340
 H      0.235776    2.361429    3.317715
 Cl    -1.433751    0.800310   -2.486912
 Cl     0.763639   -1.197140   -2.901899
 O     -0.226413    1.285126   -0.138779
 O      1.670417    0.883663   -1.441078
 C      1.076115    3.112090   -0.208891
 C      2.063475    2.204911    0.364066
 C      2.990280    0.035727    0.237588
 C     -1.254281    3.307876   -0.536777
 C     -1.073076    4.659500   -0.836604
 C      1.283968    4.436290   -0.486290
 C      0.184460    5.216849   -0.846956
 C      2.711174    2.458378    1.545088
 C      3.490901    1.453052    2.109514
 C      3.613381    0.243526    1.462919
 H      2.283339    4.846349   -0.409240
 H      0.316246    6.268387   -1.086248
 H      2.568732    3.413705    2.032992
 H      3.995902    1.622298    3.056742
 H      4.227486   -0.554680    1.860591
 N     -0.156732    2.569300   -0.319872
 N      2.227604    1.022325   -0.250442
 H     -1.954946    5.254543   -1.035268
 C     -2.569026    2.688923   -0.381896
 C     -2.791789    1.826403    0.681202
 C     -3.598735    2.993688   -1.264612
 C     -4.037648    1.253141    0.853426
 H     -1.993704    1.610933    1.372540
 C     -4.841784    2.412294   -1.097623
 H     -3.423175    3.665317   -2.095638
 C     -5.061449    1.539022   -0.039506
 H     -4.213460    0.585453    1.691277
 H     -5.642853    2.641131   -1.794150
 H     -6.039694    1.084565    0.092908
 C      3.191221   -1.165839   -0.568329
 C      3.770116   -1.047800   -1.822650
 C      2.866294   -2.410216   -0.052103
 C      4.025356   -2.184484   -2.565662
 H      4.022940   -0.072664   -2.213584
 C      3.102302   -3.544646   -0.805499
 H      2.418545   -2.490724    0.928073
 C      3.685297   -3.431314   -2.060429
 H      4.489144   -2.097094   -3.543106
 H      2.843095   -4.520977   -0.407944
 H      3.883415   -4.324372   -2.646878
