65

 Si    -0.770482   -0.594337   -0.323038
 O      0.718750   -0.504644    0.295522
 C      1.409574   -1.258263    1.230941
 C      2.575079   -1.898341    0.539294
 H      0.750519   -2.046218    1.604157
 C      2.350563   -2.414413   -0.729132
 C      3.831754   -2.026640    1.108394
 C      3.365751   -3.040677   -1.427291
 H      1.367736   -2.331121   -1.165154
 C      4.854065   -2.658542    0.414427
 H      4.026532   -1.643936    2.101793
 C      4.625570   -3.163481   -0.855472
 H      3.171684   -3.440222   -2.418128
 H      5.833874   -2.756220    0.873447
 H      5.426136   -3.657752   -1.398471
 C      1.747650   -0.354292    2.390179
 C      0.536204    0.306543    2.897158
 H      2.463038    0.404895    2.084519
 H      2.199220   -0.926709    3.207791
 C     -0.464009    0.829892    3.304221
 H     -1.341940    1.281843    3.694615
 Cl    -1.236636   -1.005516   -2.245527
 Cl    -1.337413   -2.394992    0.457474
 O     -1.937519    0.222925    0.610722
 O     -0.408971    1.030246   -0.945706
 C     -2.237960    2.404865    0.028699
 C     -0.888404    2.628600    0.537844
 C      1.369796    2.077201    0.086588
 C     -3.889398    0.775737   -0.445855
 C     -4.673575    1.759302   -1.040183
 C     -3.003692    3.399066   -0.524751
 C     -4.237660    3.065509   -1.079936
 C     -0.544029    3.556372    1.478999
 C      0.813156    3.736467    1.751540
 C      1.749368    3.023356    1.045509
 H     -2.623287    4.412433   -0.541751
 H     -4.853929    3.835228   -1.536930
 H     -1.315428    4.129901    1.977379
 H      1.128621    4.463785    2.494571
 H      2.805450    3.197672    1.195995
 N     -2.693186    1.138835    0.040752
 N      0.057026    1.894473   -0.084306
 H     -5.636288    1.467619   -1.440996
 C     -4.309171   -0.616368   -0.288942
 C     -4.352683   -1.173392    0.980332
 C     -4.693967   -1.353851   -1.400229
 C     -4.784403   -2.476087    1.140467
 H     -4.049162   -0.590988    1.837799
 C     -5.106584   -2.663664   -1.239762
 H     -4.649766   -0.912705   -2.388527
 C     -5.154923   -3.222722    0.030554
 H     -4.828095   -2.911737    2.133539
 H     -5.395556   -3.248894   -2.107394
 H     -5.488191   -4.249273    0.156392
 C      2.330692    1.349659   -0.735225
 C      2.014313    0.955736   -2.027362
 C      3.603022    1.090807   -0.235316
 C      2.948716    0.297868   -2.802009
 H      1.043463    1.169899   -2.434852
 C      4.539007    0.436265   -1.009498
 H      3.872954    1.397476    0.764647
 C      4.211991    0.033611   -2.295397
 H      2.689474   -0.001195   -3.812911
 H      5.527691    0.241846   -0.608224
 H      4.947866   -0.478744   -2.907986
