65

 Si    -0.915128    0.551495    0.779913
 O      0.666659    0.872364    0.711375
 C      1.384839    1.937835    0.181834
 C      1.987237    1.421726   -1.092971
 H      0.690300    2.743044   -0.063392
 C      1.097455    0.990103   -2.068715
 C      3.346338    1.306039   -1.322680
 C      1.554479    0.443241   -3.251741
 H      0.038851    1.091121   -1.892513
 C      3.814214    0.758519   -2.510966
 H      4.056161    1.652795   -0.583877
 C      2.921121    0.322562   -3.476091
 H      0.845460    0.118116   -4.007047
 H      4.884444    0.676561   -2.679941
 H      3.287523   -0.103347   -4.405973
 C      2.341802    2.447732    1.224317
 C      1.629742    2.749712    2.472777
 H      2.848152    3.352265    0.866714
 H      3.097948    1.701368    1.442518
 C      1.034589    2.968791    3.491445
 H      0.517288    3.182070    4.396302
 Cl    -2.000825    0.134560    2.429542
 Cl    -1.642900    2.433083    0.457235
 O     -1.554864    0.019827   -0.712043
 O     -0.373880   -1.137769    0.923989
 C     -1.535689   -2.239788   -0.969212
 C     -0.084565   -2.114012   -1.058589
 C      1.804374   -1.532970    0.246762
 C     -3.563690   -1.073042   -0.603811
 C     -4.251253   -2.281958   -0.631318
 C     -2.192095   -3.442243   -1.031092
 C     -3.572860   -3.462303   -0.843428
 C      0.680280   -2.589841   -2.082888
 C      2.067944   -2.520528   -1.944821
 C      2.610101   -2.026350   -0.787852
 H     -1.623354   -4.347839   -1.199205
 H     -4.111513   -4.405775   -0.872498
 H      0.205010   -3.015064   -2.957887
 H      2.714750   -2.889842   -2.734851
 H      3.679261   -2.029086   -0.641082
 N     -2.230417   -1.110406   -0.745591
 N      0.484734   -1.561780    0.035065
 H     -5.326635   -2.257289   -0.506952
 C     -4.211675    0.231177   -0.470859
 C     -4.018957    1.186585   -1.457489
 C     -5.038620    0.488958    0.613474
 C     -4.656867    2.408221   -1.359837
 H     -3.374010    0.974565   -2.297679
 C     -5.660511    1.719349    0.719182
 H     -5.177542   -0.260845    1.382675
 C     -5.471983    2.676726   -0.268791
 H     -4.515674    3.154492   -2.135150
 H     -6.297690    1.930707    1.572463
 H     -5.968920    3.639754   -0.189356
 C      2.354911   -1.055762    1.511480
 C      1.608674   -1.061251    2.681246
 C      3.675623   -0.613986    1.552612
 C      2.157810   -0.604356    3.863236
 H      0.599637   -1.426086    2.676853
 C      4.228451   -0.160584    2.733789
 H      4.277819   -0.600461    0.656432
 C      3.466077   -0.147315    3.894131
 H      1.557798   -0.612538    4.767806
 H      5.257245    0.186988    2.748251
 H      3.897012    0.211963    4.824772
