65

 Si    -0.446225   -0.382222    1.575877
 O      0.717113    0.567328    0.959259
 C      1.100200    1.813407    0.527488
 C      1.697217    1.665977   -0.844232
 H      1.866828    2.183404    1.218883
 C      0.896370    1.256658   -1.898551
 C      3.043137    1.910688   -1.072748
 C      1.422230    1.107990   -3.169238
 H     -0.142447    1.050750   -1.711290
 C      3.581712    1.751438   -2.342471
 H      3.679217    2.241667   -0.259197
 C      2.770935    1.354082   -3.394686
 H      0.779635    0.803532   -3.989900
 H      4.637298    1.947871   -2.509346
 H      3.188204    1.240106   -4.391463
 C     -0.063693    2.775789    0.528905
 C     -0.724044    2.832924    1.838418
 H     -0.793963    2.451864   -0.204889
 H      0.279508    3.779069    0.251500
 C     -1.264005    2.858262    2.909736
 H     -1.743094    2.870775    3.859756
 Cl     0.408046   -0.473634    3.426035
 Cl    -2.340724   -0.495314    2.272135
 O     -1.121702   -0.123133   -0.089529
 O      0.052459   -1.902060    1.007230
 C     -1.295587   -2.072970   -1.191429
 C      0.159166   -1.974303   -1.253046
 C      2.121487   -1.658275    0.026253
 C     -3.239751   -0.832288   -0.686645
 C     -4.011091   -1.871462   -1.207808
 C     -2.025336   -3.103981   -1.719884
 C     -3.417081   -3.011220   -1.698140
 C      0.869445   -1.984710   -2.421414
 C      2.249047   -1.791845   -2.365625
 C      2.863953   -1.615814   -1.149968
 H     -1.510456   -3.957398   -2.143126
 H     -4.024618   -3.817188   -2.100355
 H      0.347030   -2.114548   -3.360287
 H      2.833956   -1.788227   -3.280132
 H      3.935280   -1.489149   -1.067575
 N     -1.911162   -1.006001   -0.638303
 N      0.799228   -1.817186   -0.081220
 H     -5.084943   -1.738708   -1.233009
 C     -3.808734    0.441047   -0.247354
 C     -3.216162    1.627087   -0.649867
 C     -4.953401    0.463022    0.540771
 C     -3.748935    2.837697   -0.248068
 H     -2.346348    1.598916   -1.284499
 C     -5.482024    1.672939    0.949967
 H     -5.416222   -0.464207    0.854514
 C     -4.877370    2.861366    0.559185
 H     -3.284831    3.765795   -0.566491
 H     -6.369406    1.690056    1.575701
 H     -5.294243    3.812183    0.880110
 C      2.721481   -1.619783    1.354845
 C      2.496683   -2.669771    2.231720
 C      3.552048   -0.567711    1.706043
 C      3.107918   -2.665170    3.471014
 H      1.851231   -3.487147    1.944973
 C      4.146910   -0.554575    2.953223
 H      3.715536    0.242516    1.011082
 C      3.926855   -1.605508    3.833874
 H      2.943535   -3.490570    4.156533
 H      4.791766    0.271389    3.237110
 H      4.404936   -1.601512    4.809646
