65

 Si    -0.547031   -0.563055   -0.360251
 O      0.833026   -0.103780    0.331070
 C      1.757614   -0.386310    1.310253
 C      2.783220   -1.355027    0.802717
 H      2.265329    0.562041    1.510832
 C      2.557602   -2.057229   -0.366443
 C      3.996512   -1.505966    1.463467
 C      3.528002   -2.901489   -0.880701
 H      1.620975   -1.946265   -0.883367
 C      4.969667   -2.351085    0.956855
 H      4.186571   -0.954751    2.377814
 C      4.738232   -3.050789   -0.220369
 H      3.333327   -3.444724   -1.800612
 H      5.914254   -2.462166    1.482028
 H      5.500823   -3.713443   -0.619668
 C      1.094142   -0.798400    2.604263
 C      0.089603    0.201735    3.003245
 H      1.850629   -0.875427    3.393577
 H      0.608064   -1.765452    2.500923
 C     -0.722295    1.029627    3.314726
 H     -1.443538    1.737535    3.639971
 Cl    -0.850190   -1.213920   -2.250226
 Cl    -0.773263   -2.383088    0.531780
 O     -1.865998    0.088823    0.489145
 O     -0.478053    1.036629   -1.127753
 C     -2.524841    2.143189   -0.243593
 C     -1.235726    2.632594    0.237658
 C      1.087546    2.447071   -0.190481
 C     -3.865507    0.224426   -0.606310
 C     -4.802270    1.015179   -1.263913
 C     -3.446249    2.950106   -0.861371
 C     -4.598868    2.371954   -1.389967
 C     -1.057897    3.669890    1.109544
 C      0.246856    4.101157    1.354111
 C      1.296468    3.510654    0.693093
 H     -3.246101    4.010382   -0.949145
 H     -5.334060    2.991472   -1.896720
 H     -1.917772    4.134846    1.575272
 H      0.429446    4.922599    2.041647
 H      2.307881    3.869488    0.825656
 N     -2.756466    0.821245   -0.144632
 N     -0.175671    2.035086   -0.341961
 H     -5.695021    0.534915   -1.644651
 C     -4.030848   -1.207686   -0.360323
 C     -4.263494   -2.070614   -1.422557
 C     -3.983679   -1.683264    0.941667
 C     -4.431117   -3.421372   -1.179381
 H     -4.290833   -1.691070   -2.436802
 C     -4.171395   -3.030479    1.183841
 H     -3.798910   -1.003286    1.760295
 C     -4.388563   -3.899772    0.123657
 H     -4.599665   -4.102447   -2.007954
 H     -4.144019   -3.404296    2.202359
 H     -4.529663   -4.960172    0.314351
 C      2.163539    1.792561   -0.928066
 C      1.942767    1.226985   -2.174494
 C      3.429285    1.712618   -0.354721
 C      2.962440    0.559124   -2.824390
 H      0.977423    1.305178   -2.640832
 C      4.447610    1.041082   -0.999956
 H      3.621544    2.156668    0.612008
 C      4.213269    0.454209   -2.235379
 H      2.776644    0.120039   -3.799738
 H      5.426422    0.972663   -0.536137
 H      5.012274   -0.076948   -2.744960
