65

 Si    -0.662962   -0.690652   -0.367092
 O      0.756809   -0.408274    0.349130
 C      1.471000   -1.061521    1.340718
 C      2.755956   -1.547022    0.741046
 H      0.894965   -1.927188    1.677308
 C      2.691236   -2.091935   -0.533518
 C      3.974665   -1.509721    1.399021
 C      3.826084   -2.583614   -1.150505
 H      1.739677   -2.137986   -1.038913
 C      5.116988   -2.005873    0.786721
 H      4.046864   -1.101684    2.398792
 C      5.047072   -2.540066   -0.489845
 H      3.756471   -3.008301   -2.147429
 H      6.065841   -1.974479    1.314893
 H      5.941595   -2.927988   -0.968806
 C      1.605692   -0.116865    2.509063
 C      0.285777    0.382060    2.921663
 H      2.235870    0.728185    2.244000
 H      2.068869   -0.622679    3.363241
 C     -0.800482    0.772269    3.250011
 H     -1.755352    1.107384    3.571471
 Cl    -0.935961   -1.167980   -2.311261
 Cl    -1.047220   -2.545876    0.397213
 O     -1.989142   -0.027676    0.471403
 O     -0.470701    0.964330   -0.984649
 C     -2.525939    2.094811   -0.158396
 C     -1.255853    2.493343    0.440494
 C      1.080855    2.236581    0.155549
 C     -3.916247    0.263969   -0.725472
 C     -4.776528    1.135571   -1.385589
 C     -3.372044    2.979451   -0.776980
 C     -4.510500    2.486993   -1.412169
 C     -1.101351    3.461875    1.390934
 C      0.198522    3.816900    1.755273
 C      1.266495    3.227687    1.126029
 H     -3.125054    4.033442   -0.780257
 H     -5.186843    3.168645   -1.921100
 H     -1.973622    3.933009    1.826304
 H      0.364280    4.581615    2.509162
 H      2.278082    3.537151    1.348005
 N     -2.813949    0.780604   -0.161867
 N     -0.182112    1.885098   -0.104403
 H     -5.663133    0.720348   -1.848263
 C     -4.163767   -1.169949   -0.579356
 C     -4.223616   -1.722619    0.691175
 C     -4.372724   -1.955525   -1.704575
 C     -4.495086   -3.069321    0.838495
 H     -4.057810   -1.102365    1.559695
 C     -4.624352   -3.306853   -1.555541
 H     -4.317051   -1.516486   -2.693236
 C     -4.688829   -3.862123   -0.284278
 H     -4.551500   -3.502796    1.831877
 H     -4.774772   -3.928158   -2.433116
 H     -4.895561   -4.922535   -0.168097
 C      2.183151    1.636905   -0.588390
 C      2.012241    1.201804   -1.894666
 C      3.439787    1.546581    0.001850
 C      3.076149    0.668731   -2.594609
 H      1.053062    1.286979   -2.371330
 C      4.504782    1.016915   -0.697530
 H      3.596733    1.888159    1.014532
 C      4.324088    0.571853   -1.998238
 H      2.929672    0.335934   -3.617530
 H      5.479475    0.953560   -0.226080
 H      5.161257    0.157367   -2.551981
