65

 Si     1.131256    2.013840   -0.445739
 O     -0.522125    1.612974    0.495840
 C     -1.513082    2.228879    0.831704
 C     -2.644534    1.580817    1.492370
 H     -1.602639    3.299662    0.618828
 C     -2.446206    0.353121    2.121271
 C     -3.904194    2.171439    1.480010
 C     -3.502636   -0.281918    2.736801
 H     -1.451444   -0.070461    2.136100
 C     -4.971801    1.519095    2.076024
 H     -4.048159    3.134546    0.999715
 C     -4.768299    0.300068    2.705368
 H     -3.351164   -1.228397    3.246334
 H     -5.960804    1.967100    2.059256
 H     -5.603999   -0.203654    3.184377
 C     -2.143541    2.717817   -2.671727
 C     -0.980916    2.972013   -2.124203
 H     -3.071284    3.002905   -2.181317
 H     -2.205107    2.282683   -3.666037
 C      0.165462    3.189356   -1.544811
 H      0.625826    4.158993   -1.730673
 Cl     2.911677    2.053058   -1.513978
 Cl     1.614532    3.367807    1.061352
 O      1.579524    0.690570    0.657668
 O      0.603360    0.597439   -1.453489
 C      1.894078   -1.359606   -0.266223
 C      0.446865   -1.410455   -0.407761
 C     -1.459046   -0.290421   -1.186046
 C      3.705185   -0.067764    0.491573
 C      4.622417   -1.042469    0.132664
 C      2.758760   -2.367441   -0.637323
 C      4.120304   -2.202641   -0.444885
 C     -0.345502   -2.458242    0.020144
 C     -1.715645   -2.395752   -0.144864
 C     -2.308942   -1.290162   -0.748616
 H      2.358179   -3.268588   -1.084839
 H      4.797451   -2.995796   -0.737454
 H      0.124661   -3.309833    0.496761
 H     -2.326485   -3.219972    0.200009
 H     -1.764402    0.614408   -1.680992
 N      2.403792   -0.243635    0.279758
 N     -0.142828   -0.360892   -1.001839
 H      3.945802    0.886156    0.930658
 C     -3.773486   -1.137473   -0.901008
 C     -4.304881   -0.335885   -1.908978
 C     -4.642394   -1.772213   -0.017847
 C     -5.673800   -0.165317   -2.024771
 H     -3.652454    0.153074   -2.620459
 C     -6.011569   -1.601618   -0.129756
 H     -4.252290   -2.392325    0.777254
 C     -6.531925   -0.795334   -1.132884
 H     -6.071512    0.460079   -2.818985
 H     -6.674412   -2.100330    0.571317
 H     -7.606399   -0.660883   -1.222649
 C      6.067028   -0.820699    0.360256
 C      6.506812   -0.166626    1.508078
 C      6.999261   -1.259443   -0.575897
 C      7.859732    0.041153    1.718997
 H      5.794206    0.168895    2.251881
 C      8.351837   -1.045033   -0.369191
 H      6.669003   -1.752567   -1.482058
 C      8.784904   -0.396024    0.779949
 H      8.191985    0.546075    2.621487
 H      9.069913   -1.384165   -1.110261
 H      9.846093   -0.229987    0.943757
