65

 Si     0.094361    0.787061    2.133660
 O      0.812507    1.798687    1.091166
 C      0.849746    2.122853   -0.252869
 C     -0.528319    2.122150   -0.831474
 H      1.438722    1.369358   -0.776750
 C     -1.532716    2.815911   -0.181073
 C     -0.841307    1.322580   -1.916685
 C     -2.847995    2.684705   -0.583840
 H     -1.286465    3.438861    0.666984
 C     -2.156897    1.186829   -2.328137
 H     -0.057217    0.790705   -2.440154
 C     -3.165017    1.859687   -1.655180
 H     -3.629327    3.225751   -0.058205
 H     -2.396588    0.554851   -3.178925
 H     -4.197841    1.754991   -1.975573
 C      1.563623    3.447796   -0.377554
 C      2.938810    3.356322    0.140173
 H      1.017649    4.200691    0.192879
 H      1.595360    3.771568   -1.425647
 C      4.055266    3.268143    0.572237
 H      5.048986    3.209184    0.942567
 Cl    -1.660532    1.050509    3.096849
 Cl     1.343724    1.253804    3.679649
 O     -0.827632    0.262205    0.690306
 O      0.751185   -0.794097    1.976196
 C     -0.522491   -1.833274   -0.053797
 C      0.863104   -1.421654   -0.219508
 C      2.672631   -0.349696    0.844608
 C     -2.630555   -1.103727    0.681831
 C     -3.217078   -2.321330    0.368624
 C     -1.048319   -3.064109   -0.384425
 C     -2.395038   -3.306065   -0.169699
 C      1.602053   -1.532250   -1.376447
 C      2.892809   -1.030379   -1.409585
 C      3.455505   -0.417958   -0.294707
 H     -0.396694   -3.823641   -0.799693
 H     -2.811129   -4.270196   -0.434931
 H      1.153176   -1.991377   -2.248825
 H      3.470594   -1.116983   -2.322102
 H      2.950737    0.118544    1.775042
 N     -1.335394   -0.896661    0.467194
 N      1.440745   -0.847718    0.846710
 H     -3.137137   -0.259867    1.118337
 C      4.817050    0.154283   -0.295992
 C      5.620758    0.058711    0.836596
 C      5.298279    0.811384   -1.424410
 C      6.890459    0.610924    0.839077
 H      5.264679   -0.461140    1.717793
 C      6.564933    1.369720   -1.420064
 H      4.674423    0.912855   -2.303691
 C      7.364032    1.269403   -0.288521
 H      7.513025    0.524265    1.724991
 H      6.927652    1.888755   -2.302553
 H      8.359585    1.704881   -0.285649
 C     -4.661444   -2.526827    0.609538
 C     -5.564030   -1.490678    0.381636
 C     -5.131263   -3.755231    1.066293
 C     -6.917436   -1.681824    0.603751
 H     -5.214405   -0.535049    0.010037
 C     -6.483905   -3.944013    1.296548
 H     -4.437930   -4.563923    1.263756
 C     -7.379687   -2.908337    1.063722
 H     -7.614040   -0.869964    0.415298
 H     -6.839072   -4.903549    1.661371
 H     -8.441267   -3.057410    1.241243
