65

 Si     0.733540    1.758409   -0.607797
 O     -0.868847    1.927312   -0.659307
 C     -2.036784    2.348571   -0.045824
 C     -2.345387    1.434866    1.109608
 H     -2.824273    2.233744   -0.801932
 C     -1.317544    0.948869    1.899184
 C     -3.650504    1.053480    1.385513
 C     -1.575983    0.060450    2.926982
 H     -0.309957    1.270854    1.712649
 C     -3.919984    0.182858    2.430045
 H     -4.464301    1.433717    0.778532
 C     -2.881702   -0.329003    3.194544
 H     -0.755783   -0.317597    3.529950
 H     -4.945652   -0.103883    2.640242
 H     -3.090648   -1.019640    4.006762
 C     -2.003994    3.804902    0.357278
 C     -1.716817    4.662486   -0.803140
 H     -1.248124    3.968517    1.123415
 H     -2.980864    4.079812    0.773775
 C     -1.480393    5.338913   -1.766227
 H     -1.273587    5.956722   -2.607454
 Cl     1.960874    2.233809   -2.134924
 Cl     1.206732    3.302955    0.653158
 O      1.397574    0.674059    0.549498
 O      0.432042    0.225409   -1.497512
 C      1.745614   -1.476380   -0.132696
 C      0.294884   -1.585646   -0.147922
 C     -1.637807   -0.631496   -1.072187
 C      3.530053    0.042894    0.103047
 C      4.467914   -0.920094   -0.231288
 C      2.633432   -2.480099   -0.456472
 C      3.989010   -2.198478   -0.503140
 C     -0.462150   -2.548798    0.477601
 C     -1.837447   -2.540016    0.313533
 C     -2.457306   -1.583419   -0.481237
 H      2.253509   -3.467334   -0.689662
 H      4.685048   -2.989138   -0.756262
 H      0.029266   -3.298637    1.086032
 H     -2.429222   -3.305387    0.798549
 H     -1.970532    0.182493   -1.685818
 N      2.235739   -0.260636    0.148349
 N     -0.325995   -0.650121   -0.890157
 H      3.743399    1.075409    0.332149
 C     -3.918055   -1.547417   -0.706295
 C     -4.440605   -0.987288   -1.870063
 C     -4.792736   -2.064591    0.245358
 C     -5.809084   -0.938976   -2.074615
 H     -3.780967   -0.600250   -2.636235
 C     -6.161340   -2.013007    0.045568
 H     -4.409455   -2.490888    1.162297
 C     -6.674033   -1.448834   -1.115215
 H     -6.200353   -0.504218   -2.989937
 H     -6.830488   -2.413733    0.801586
 H     -7.748269   -1.409054   -1.273678
 C      5.904144   -0.572874   -0.289659
 C      6.452215    0.312929    0.634857
 C      6.719071   -1.125904   -1.273928
 C      7.797176    0.637758    0.577990
 H      5.834815    0.739596    1.416281
 C      8.062421   -0.795203   -1.335553
 H      6.301492   -1.801669   -2.010495
 C      8.604394    0.085811   -0.408353
 H      8.216062    1.324113    1.308302
 H      8.687584   -1.225419   -2.112702
 H      9.658971    0.343412   -0.454944
