65

 Si     0.185134    0.467015    2.235214
 O      1.353303    1.132480    1.331840
 C      1.570705    2.249154    0.534757
 C      0.456818    2.306594   -0.467283
 H      1.535147    3.140396    1.170647
 C      0.440760    1.460525   -1.560723
 C     -0.671018    3.055526   -0.176164
 C     -0.698185    1.325341   -2.331171
 H      1.319983    0.890599   -1.810372
 C     -1.814477    2.929891   -0.943868
 H     -0.667341    3.725179    0.675134
 C     -1.835685    2.052643   -2.016441
 H     -0.698249    0.659836   -3.188997
 H     -2.692873    3.521271   -0.702587
 H     -2.731855    1.952013   -2.622336
 C      2.954407    2.130919   -0.059071
 C      3.969099    1.882105    0.974190
 H      3.207584    3.046994   -0.607376
 H      2.986504    1.307360   -0.768343
 C      4.786951    1.655810    1.822694
 H      5.524280    1.470729    2.566782
 Cl    -1.357890    1.451691    3.087723
 Cl     1.303684    0.179613    3.917849
 O     -0.749141    0.462301    0.696598
 O      0.250511   -1.215005    1.862599
 C     -1.211403   -1.505941   -0.278496
 C      0.233678   -1.615535   -0.389695
 C      2.247792   -1.301195    0.788780
 C     -2.930628   -0.123153    0.527731
 C     -3.910818   -0.995325    0.076264
 C     -2.138883   -2.409647   -0.749640
 C     -3.488182   -2.152012   -0.569627
 C      0.940410   -1.868311   -1.543437
 C      2.324807   -1.807063   -1.519026
 C      3.009130   -1.495650   -0.349952
 H     -1.795549   -3.310724   -1.243802
 H     -4.219277   -2.858376   -0.943440
 H      0.401687   -2.074431   -2.460028
 H      2.878734   -1.993075   -2.431727
 H      2.628913   -1.050516    1.763931
 N     -1.642646   -0.390881    0.340269
 N      0.924539   -1.375790    0.734369
 H     -3.109532    0.796806    1.057534
 C      4.476061   -1.334421   -0.286646
 C      5.183575   -1.751156    0.836807
 C      5.156119   -0.724892   -1.336949
 C      6.552999   -1.561658    0.908505
 H      4.669750   -2.239013    1.656082
 C      6.524064   -0.527217   -1.262043
 H      4.615921   -0.382392   -2.210832
 C      7.225277   -0.945679   -0.138758
 H      7.097212   -1.898315    1.786214
 H      7.044078   -0.042412   -2.083240
 H      8.299545   -0.793156   -0.080571
 C     -5.338530   -0.673807    0.290127
 C     -5.786686    0.639507    0.170848
 C     -6.245639   -1.679367    0.612953
 C     -7.123569    0.942207    0.368053
 H     -5.094845    1.429101   -0.096230
 C     -7.581300   -1.375692    0.818406
 H     -5.906850   -2.702263    0.725384
 C     -8.023096   -0.064698    0.694372
 H     -7.464341    1.968435    0.264934
 H     -8.279217   -2.166356    1.078635
 H     -9.071458    0.173086    0.852642
