65

 Si     0.090795    0.456813    2.246813
 O      0.899387    1.522918    1.334144
 C      0.664269    2.655541    0.564991
 C     -0.433317    2.321305   -0.400375
 H      0.332279    3.461293    1.228701
 C     -0.184295    1.548897   -1.519852
 C     -1.743622    2.602606   -0.051863
 C     -1.225819    1.022932   -2.259755
 H      0.831234    1.343780   -1.814328
 C     -2.792832    2.084010   -0.788784
 H     -1.949813    3.211349    0.819951
 C     -2.536427    1.279824   -1.887789
 H     -1.018190    0.419569   -3.138152
 H     -3.815723    2.310208   -0.502356
 H     -3.358060    0.871098   -2.469338
 C      1.971192    3.060007   -0.075008
 C      3.047383    3.181731    0.917983
 H      1.851162    4.014157   -0.603280
 H      2.272267    2.316547   -0.809069
 C      3.924751    3.255381    1.733363
 H      4.708220    3.339866    2.447914
 Cl    -1.670890    0.796424    3.174006
 Cl     1.300100    0.560867    3.887143
 O     -0.837721    0.142254    0.736981
 O      0.751702   -1.075543    1.813650
 C     -0.589480   -1.838100   -0.290437
 C      0.790477   -1.410239   -0.448906
 C      2.597475   -0.404425    0.677071
 C     -2.660877   -1.195480    0.612059
 C     -3.273621   -2.355182    0.159578
 C     -1.142616   -3.007567   -0.765328
 C     -2.484866   -3.263846   -0.537647
 C      1.493832   -1.365677   -1.631253
 C      2.760632   -0.803740   -1.647127
 C      3.330836   -0.285835   -0.490098
 H     -0.514872   -3.710410   -1.300058
 H     -2.922982   -4.179795   -0.914831
 H      1.031019   -1.737127   -2.537157
 H      3.307250   -0.757821   -2.581762
 H      2.899938   -0.050915    1.647911
 N     -1.372232   -0.970557    0.377979
 N      1.391010   -0.955621    0.660607
 H     -3.140590   -0.415450    1.178145
 C      4.639739    0.398363   -0.466620
 C      5.494952    0.247843    0.620717
 C      5.008429    1.233442   -1.517292
 C      6.703153    0.922665    0.656363
 H      5.227408   -0.409005    1.439366
 C      6.212373    1.915288   -1.478111
 H      4.345944    1.371318   -2.362809
 C      7.062377    1.760823   -0.390800
 H      7.367434    0.791542    1.505721
 H      6.486764    2.571575   -2.298966
 H      8.008882    2.293664   -0.360815
 C     -4.710800   -2.581463    0.425565
 C     -5.610074   -1.519449    0.367747
 C     -5.176806   -3.855982    0.736540
 C     -6.956538   -1.729787    0.613812
 H     -5.263898   -0.525778    0.110491
 C     -6.522156   -4.065178    0.990836
 H     -4.485276   -4.687415    0.801461
 C     -7.414810   -3.002874    0.928015
 H     -7.650799   -0.896226    0.558429
 H     -6.873972   -5.061889    1.241313
 H     -8.470694   -3.167522    1.124596
