65

 Si     0.728015    1.548019    0.157882
 O     -0.887725    1.463889    0.181341
 C     -1.916667    1.925400    0.977999
 C     -2.981839    2.541997    0.115223
 H     -1.529552    2.669083    1.680171
 C     -2.889417    2.457013   -1.263963
 C     -4.077548    3.178344    0.686601
 C     -3.879040    2.998009   -2.071215
 H     -2.026672    1.989871   -1.711594
 C     -5.070207    3.718217   -0.115543
 H     -4.154318    3.259234    1.765243
 C     -4.975220    3.626774   -1.498059
 H     -3.789145    2.931165   -3.151729
 H     -5.921231    4.215097    0.341966
 H     -5.752357    4.051424   -2.127181
 C     -2.480426    0.756725    1.768757
 C     -1.423906   -0.048890    2.395842
 H     -3.065149    0.109689    1.117528
 H     -3.157486    1.125017    2.546996
 C     -0.554689   -0.712577    2.890123
 H      0.210736   -1.285424    3.352159
 Cl     1.797080    2.486573   -1.274829
 Cl     1.011051    2.891726    1.677918
 O      1.598763    0.366992    1.042936
 O      0.575868    0.205492   -1.029875
 C      2.171591   -1.535828   -0.095779
 C      0.748629   -1.841525   -0.082317
 C     -1.344706   -0.973515   -0.682276
 C      3.758792    0.133972    0.391575
 C      4.788388   -0.599820   -0.174671
 C      3.157165   -2.317249   -0.659307
 C      4.460280   -1.847972   -0.694894
 C      0.158022   -2.998765    0.370488
 C     -1.221610   -3.121305    0.311115
 C     -2.002433   -2.101297   -0.216281
 H      2.891434   -3.277726   -1.084007
 H      5.233084   -2.464944   -1.137422
 H      0.778347   -3.786925    0.780569
 H     -1.691321   -4.025467    0.679116
 H     -1.821841   -0.105843   -1.093362
 N      2.518669   -0.346363    0.419611
 N     -0.028892   -0.866870   -0.587249
 H      3.855660    1.116460    0.826800
 C     -3.479598   -2.142780   -0.253474
 C     -4.175262   -1.579095   -1.320260
 C     -4.188198   -2.708803    0.802514
 C     -5.559658   -1.585363   -1.332650
 H     -3.637754   -1.145724   -2.154702
 C     -5.573267   -2.709910    0.793400
 H     -3.658967   -3.129696    1.648721
 C     -6.261561   -2.149139   -0.274652
 H     -6.092111   -1.148504   -2.172543
 H     -6.116546   -3.147121    1.626287
 H     -7.348134   -2.150935   -0.282590
 C      6.161280   -0.051519   -0.210899
 C      6.652934    0.686564    0.862959
 C      6.971636   -0.265440   -1.322768
 C      7.938456    1.200218    0.826603
 H      6.040184    0.848370    1.741739
 C      8.254407    0.254829   -1.362463
 H      6.594759   -0.822224   -2.172209
 C      8.740840    0.987053   -0.286876
 H      8.314788    1.768354    1.672483
 H      8.875388    0.089749   -2.238253
 H      9.748205    1.393241   -0.316776
