65

 Si    -0.475367    0.263733   -2.231395
 O     -1.765971    0.427226   -1.266440
 C     -2.381539    1.384377   -0.469859
 C     -1.339025    1.930223    0.459390
 H     -2.750251    2.188134   -1.116357
 C     -0.919562    1.207134    1.560784
 C     -0.635760    3.063958    0.088355
 C      0.213172    1.578969    2.258939
 H     -1.473219    0.337761    1.873543
 C      0.496520    3.447029    0.784144
 H     -0.958973    3.641276   -0.769195
 C      0.933174    2.695863    1.863606
 H      0.532533    1.004084    3.122793
 H      1.039768    4.337079    0.480518
 H      1.822862    2.992837    2.411872
 C     -3.559712    0.729870    0.212036
 C     -4.436540    0.050758   -0.751786
 H     -4.137392    1.480425    0.766031
 H     -3.211349   -0.008356    0.930261
 C     -5.134057   -0.519551   -1.544391
 H     -5.769602   -1.015670   -2.238332
 Cl    -1.461042   -0.520354   -3.837057
 Cl     0.480654    1.760994   -3.191581
 O      0.455940    0.700352   -0.754468
 O      0.174606   -1.282016   -1.830586
 C      1.735645   -0.866070    0.218680
 C      0.471678   -1.554457    0.421080
 C     -1.552220   -2.136728   -0.632148
 C      2.689951    1.069453   -0.709369
 C      3.963138    0.696002   -0.303438
 C      2.974778   -1.288399    0.649155
 C      4.087074   -0.505932    0.384889
 C     -0.007018   -2.032687    1.619845
 C     -1.293369   -2.544563    1.681789
 C     -2.105677   -2.583548    0.554412
 H      3.058211   -2.230864    1.177109
 H      5.061358   -0.833980    0.725980
 H      0.616180   -1.966956    2.503112
 H     -1.672582   -2.908844    2.629384
 H     -2.052740   -2.101000   -1.584625
 N      1.637873    0.303301   -0.441143
 N     -0.314555   -1.660165   -0.660000
 H      2.446970    1.961138   -1.261490
 C     -3.509891   -3.041041    0.581584
 C     -4.041394   -3.751105   -0.490651
 C     -4.323787   -2.728284    1.666463
 C     -5.368762   -4.143942   -0.477664
 H     -3.416559   -4.013606   -1.335568
 C     -5.653365   -3.113076    1.676038
 H     -3.927227   -2.163248    2.500889
 C     -6.178403   -3.822099    0.603547
 H     -5.771651   -4.705254   -1.315804
 H     -6.282435   -2.856195    2.523443
 H     -7.221392   -4.126737    0.611680
 C      5.118768    1.567913   -0.606356
 C      4.989499    2.952884   -0.535390
 C      6.344058    1.012884   -0.965244
 C      6.071186    3.770867   -0.815760
 H      4.046665    3.397714   -0.241120
 C      7.423872    1.830930   -1.253741
 H      6.453247   -0.062360   -1.040478
 C      7.289989    3.211343   -1.177647
 H      5.962066    4.849591   -0.749837
 H      8.373085    1.387924   -1.541304
 H      8.137870    3.853061   -1.401126
