65

 Si     0.341644    0.506242    1.723648
 O     -0.816481    1.663609    1.857478
 C     -0.962210    2.836175    1.131501
 C     -1.906508    2.560152   -0.003730
 H      0.003267    3.133607    0.716934
 C     -3.248773    2.324125    0.248123
 C     -1.430252    2.441142   -1.299841
 C     -4.111649    1.991359   -0.783374
 H     -3.625693    2.402808    1.259139
 C     -2.281585    2.082501   -2.333511
 H     -0.382209    2.618901   -1.504727
 C     -3.627306    1.859929   -2.078482
 H     -5.165543    1.835758   -0.573377
 H     -1.895438    1.988892   -3.344722
 H     -4.299579    1.593443   -2.889403
 C     -1.444700    3.924333    2.061060
 C     -0.441192    4.257553    3.084475
 H     -2.353231    3.586764    2.560578
 H     -1.684332    4.832842    1.495014
 C      0.379826    4.531753    3.916415
 H      1.096875    4.788716    4.658650
 Cl    -0.471495   -0.652247    3.167517
 Cl     1.980980    1.640844    2.039490
 O     -0.072499    0.345209    0.054317
 O      1.330066   -0.946066    1.353715
 C      0.176614   -1.734992   -0.813405
 C      1.593043   -1.405051   -0.860765
 C      3.404686   -0.664759    0.434312
 C     -1.922723   -0.970549   -0.067703
 C     -2.533263   -2.166254   -0.411194
 C     -0.382106   -2.932911   -1.202208
 C     -1.734222   -3.144531   -0.995772
 C      2.407675   -1.509715   -1.966300
 C      3.746249   -1.170070   -1.857189
 C      4.273267   -0.741644   -0.644233
 H      0.251176   -3.697513   -1.635427
 H     -2.174832   -4.089696   -1.289566
 H      1.984517   -1.846822   -2.904924
 H      4.388501   -1.253077   -2.725347
 H      3.677291   -0.339001    1.424078
 N     -0.619421   -0.798063   -0.275512
 N      2.118706   -0.978476    0.302269
 H     -2.403720   -0.123846    0.393044
 C      5.695342   -0.371549   -0.475741
 C      6.372469   -0.694758    0.697592
 C      6.368223    0.306397   -1.488784
 C      7.704081   -0.348097    0.853794
 H      5.867883   -1.236899    1.488276
 C      7.697703    0.660203   -1.329671
 H      5.848854    0.579117   -2.399501
 C      8.368756    0.331881   -0.158654
 H      8.224682   -0.612022    1.769893
 H      8.210727    1.196405   -2.122896
 H      9.412655    0.606734   -0.034661
 C     -3.969799   -2.387444   -0.140033
 C     -4.897206   -1.380869   -0.385222
 C     -4.401410   -3.610926    0.366028
 C     -6.241856   -1.593848   -0.130874
 H     -4.572460   -0.433303   -0.791896
 C     -5.744673   -3.821533    0.627972
 H     -3.685718   -4.396394    0.577365
 C     -6.667737   -2.813727    0.377880
 H     -6.960083   -0.804559   -0.333045
 H     -6.071617   -4.775814    1.030895
 H     -7.722236   -2.980367    0.580239
