65

 Si     0.205009    0.762740    2.129132
 O      1.210095    1.533425    1.118509
 C      1.387996    1.821905   -0.222385
 C      0.084354    2.181852   -0.858559
 H      1.775897    0.933107   -0.721220
 C     -0.725092    3.123488   -0.249282
 C     -0.386908    1.481456   -1.955132
 C     -2.011677    3.340195   -0.704484
 H     -0.355814    3.668305    0.607896
 C     -1.674568    1.693805   -2.419072
 H      0.247773    0.754548   -2.445612
 C     -2.493950    2.616630   -1.787402
 H     -2.641654    4.074481   -0.211065
 H     -2.039946    1.138305   -3.278506
 H     -3.504315    2.785586   -2.149324
 C      2.434056    2.907270   -0.315060
 C      3.708581    2.462303    0.272522
 H      2.081720    3.788147    0.223657
 H      2.601472    3.192028   -1.361632
 C      4.739703    2.088978    0.760732
 H      5.663340    1.775505    1.181213
 Cl    -1.463366    1.486922    3.006475
 Cl     1.460161    0.913650    3.732052
 O     -0.755367    0.476383    0.644018
 O      0.429806   -0.937200    2.009523
 C     -0.982526   -1.637943   -0.072992
 C      0.468463   -1.606262   -0.176743
 C      2.447812   -1.029943    0.965879
 C     -2.853475   -0.366128    0.558323
 C     -3.725844   -1.392141    0.224888
 C     -1.798897   -2.692417   -0.421997
 C     -3.170045   -2.567292   -0.270050
 C      1.201470   -1.921022   -1.299263
 C      2.579028   -1.775851   -1.274654
 C      3.233763   -1.316932   -0.136661
 H     -1.352852   -3.604453   -0.800452
 H     -3.813666   -3.392427   -0.549285
 H      0.686157   -2.260635   -2.189469
 H      3.152886   -2.024232   -2.159573
 H      2.798476   -0.634465    1.905539
 N     -1.541503   -0.511368    0.404402
 N      1.129649   -1.188722    0.913352
 H     -3.139037    0.589981    0.962728
 C      4.696529   -1.121818   -0.077032
 C      5.397640   -1.416330    1.088917
 C      5.381278   -0.624667   -1.181805
 C      6.766709   -1.218009    1.147923
 H      4.879975   -1.817225    1.952000
 C      6.748846   -0.419116   -1.120830
 H      4.843973   -0.370103   -2.086883
 C      7.444384   -0.716614    0.043973
 H      7.306385   -1.458674    2.059404
 H      7.272693   -0.021338   -1.985193
 H      8.518410   -0.558403    0.091294
 C     -5.182513   -1.205896    0.398382
 C     -5.769562    0.025839    0.118545
 C     -5.978578   -2.258110    0.842648
 C     -7.133906    0.201472    0.277732
 H     -5.164801    0.848038   -0.244545
 C     -7.341924   -2.080225    1.009951
 H     -5.531875   -3.216271    1.079509
 C     -7.922330   -0.850688    0.726002
 H     -7.583337    1.163593    0.049157
 H     -7.952786   -2.905062    1.365567
 H     -8.992377   -0.711951    0.854320
