65

 Si    -0.673907    1.447085    1.405458
 O      0.467229    1.766784    0.315003
 C      1.647700    2.463247    0.147913
 C      2.533431    1.635056   -0.740080
 H      2.130532    2.625694    1.116266
 C      1.943677    0.866604   -1.730762
 C      3.913474    1.640373   -0.609511
 C      2.720463    0.088734   -2.571465
 H      0.869000    0.883906   -1.828969
 C      4.697232    0.863948   -1.450243
 H      4.381467    2.250554    0.155006
 C      4.102722    0.081645   -2.427875
 H      2.249700   -0.507887   -3.347224
 H      5.776926    0.868377   -1.336826
 H      4.716610   -0.526748   -3.085958
 C      1.344916    3.802890   -0.487564
 C      0.491863    4.637067    0.373447
 H      0.834868    3.632733   -1.437712
 H      2.275280    4.344767   -0.694766
 C     -0.198718    5.307762    1.090556
 H     -0.809594    5.903896    1.725483
 Cl     0.358050    1.988905    3.097340
 Cl    -2.402183    2.411865    1.792112
 O     -1.441912    0.760502   -0.108947
 O     -0.622244   -0.217217    1.828077
 C     -1.751981   -1.474485   -0.134630
 C     -0.304034   -1.544349   -0.001993
 C      1.508078   -0.818713    1.317404
 C     -3.586566   -0.009673   -0.168827
 C     -4.488760   -1.062038   -0.248088
 C     -2.598251   -2.558862   -0.221747
 C     -3.966580   -2.350085   -0.277498
 C      0.562422   -2.257998   -0.798531
 C      1.919015   -2.228910   -0.524604
 C      2.431528   -1.507842    0.549832
 H     -2.178170   -3.557505   -0.229595
 H     -4.632582   -3.201152   -0.348885
 H      0.171431   -2.816977   -1.639869
 H      2.588388   -2.774493   -1.175054
 H      1.724227   -0.219726    2.185736
 N     -2.276354   -0.234090   -0.115541
 N      0.215165   -0.854224    1.023400
 H     -3.851609    1.033655   -0.127208
 C      3.871932   -1.455106    0.879144
 C      4.372781   -0.457486    1.712982
 C      4.755764   -2.394906    0.354445
 C      5.723108   -0.392493    2.004988
 H      3.716101    0.292456    2.130152
 C      6.107525   -2.333689    0.645398
 H      4.394810   -3.193238   -0.279801
 C      6.596714   -1.329530    1.469799
 H      6.094194    0.395869    2.653470
 H      6.780391   -3.077656    0.228773
 H      7.657670   -1.280084    1.699236
 C     -5.941625   -0.787913   -0.294275
 C     -6.430134    0.302157   -1.010580
 C     -6.833392   -1.617026    0.380996
 C     -7.790692    0.556788   -1.053942
 H     -5.750476    0.946720   -1.554931
 C     -8.193417   -1.357799    0.344742
 H     -6.465393   -2.458229    0.955928
 C     -8.674840   -0.271414   -0.374431
 H     -8.161497    1.404943   -1.622289
 H     -8.879442   -2.006006    0.882455
 H     -9.742032   -0.069429   -0.405320
