71

 Si    -0.699420   -2.138156   -0.285539
 O      0.912825   -2.242016   -0.334633
 C      1.902243   -2.812233    0.459879
 C      2.409365   -1.723790    1.368122
 H      1.458364   -3.602837    1.071007
 C      3.744019   -1.377756    1.488190
 C      1.463763   -1.023429    2.106277
 C      4.128986   -0.344337    2.331926
 H      4.501152   -1.912535    0.930643
 C      1.836380    0.019763    2.929983
 H      0.428986   -1.308534    2.037267
 C      3.177667    0.366018    3.044553
 H      5.180988   -0.093946    2.424511
 H      1.081224    0.553772    3.498551
 H      3.479519    1.177815    3.700361
 C      2.927544   -3.428089   -0.458189
 C      2.293349   -4.412261   -1.349087
 H      3.714548   -3.925982    0.120109
 H      3.398514   -2.654459   -1.067296
 C      1.749820   -5.206666   -2.066191
 H      1.284777   -5.921197   -2.703232
 Cl    -1.994880   -2.777160   -1.696108
 Cl    -1.074823   -3.591990    1.113519
 O     -1.305160   -0.952756    0.796376
 O     -0.455309   -0.721460   -1.359158
 C     -1.714544    1.079687   -0.153374
 C     -0.262828    1.189461   -0.168182
 C      1.630891    0.150457   -1.096596
 C     -3.461185   -0.429029    0.344845
 C     -4.420727    0.449803   -0.136309
 C     -2.612093    1.993585   -0.674844
 C     -3.964577    1.655262   -0.644852
 C      0.514843    2.161926    0.423143
 C      1.889593    2.112153    0.190547
 C      2.476682    1.130399   -0.586905
 H     -4.681328    2.362479   -1.040953
 H      2.507530    2.882786    0.628801
 H      1.935999   -0.706948   -1.662972
 N     -2.180534   -0.089498    0.317490
 N      0.333114    0.202744   -0.869108
 H     -3.647468   -1.417778    0.733723
 C      3.927767    1.077785   -0.870491
 C      4.402315    0.404017   -1.994268
 C      4.842495    1.696818   -0.023115
 C      5.759835    0.342135   -2.259174
 H      3.712900   -0.064044   -2.684826
 C      6.200466    1.634009   -0.283224
 H      4.500731    2.216252    0.861004
 C      6.664291    0.954443   -1.401769
 H      6.111054   -0.183679   -3.142410
 H      6.899789    2.117283    0.393027
 H      7.730085    0.905217   -1.607397
 C     -5.851611    0.076171   -0.113560
 C     -6.374174   -0.631893    0.965700
 C     -6.686116    0.423842   -1.172263
 C     -7.713751   -0.982797    0.988127
 H     -5.740304   -0.897765    1.803229
 C     -8.023994    0.066577   -1.153590
 H     -6.287717    0.957210   -2.026792
 C     -8.540837   -0.635641   -0.072170
 H     -8.112594   -1.529023    1.838104
 H     -8.664604    0.335274   -1.988626
 H     -9.591025   -0.913953   -0.056294
 C     -2.165301    3.296048   -1.277211
 H     -2.290247    4.110261   -0.559511
 H     -1.123782    3.257388   -1.580801
 H     -2.773936    3.525167   -2.151822
 C     -0.072252    3.234871    1.296324
 H      0.505115    3.308965    2.218815
 H     -0.027273    4.204709    0.795789
 H     -1.105138    3.021085    1.552898
