71

 Si     0.416638    1.722546   -1.633679
 O     -0.805949    2.079840   -0.632721
 C     -1.126677    2.003798    0.704753
 C     -2.604997    1.756239    0.825611
 H     -0.583988    1.190470    1.182962
 C     -3.449769    2.193233   -0.179919
 C     -3.139733    1.149052    1.953825
 C     -4.821068    2.033850   -0.063027
 H     -3.023966    2.664892   -1.053800
 C     -4.511203    0.994650    2.078562
 H     -2.482935    0.810311    2.748107
 C     -5.355123    1.441428    1.071733
 H     -5.473434    2.384207   -0.856748
 H     -4.923606    0.529448    2.969354
 H     -6.429651    1.327424    1.172593
 C     -0.754477    3.300149    1.389916
 C      0.697941    3.529203    1.437983
 H     -1.135994    3.307809    2.417236
 H     -1.225498    4.124382    0.850831
 C      1.880407    3.726779    1.499096
 H      2.920137    3.937897    1.558470
 Cl    -0.664458    2.286650   -3.286953
 Cl     2.108542    2.729795   -2.071132
 O      1.181344    1.065679   -0.141585
 O      0.381929    0.070033   -2.090105
 C      1.671665   -1.132148   -0.249316
 C      0.222056   -1.265012   -0.251951
 C     -1.698824   -0.537874   -1.417057
 C      3.377246    0.486305   -0.141747
 C      4.363697   -0.492137   -0.200235
 C      2.595054   -2.154503   -0.349035
 C      3.945775   -1.805612   -0.319547
 C     -0.557589   -1.943993    0.662171
 C     -1.937950   -1.926510    0.467822
 C     -2.547255   -1.239782   -0.570361
 H      4.685278   -2.592378   -0.387086
 H     -2.550204   -2.473759    1.169603
 H     -1.991656    0.097432   -2.234717
 N      2.097917    0.147445   -0.184979
 N     -0.390813   -0.588098   -1.238176
 H      3.550122    1.547661   -0.094168
 C     -4.009280   -1.227269   -0.788705
 C     -4.539598   -0.804508   -2.006150
 C     -4.883705   -1.641715    0.212055
 C     -5.906893   -0.790173   -2.214929
 H     -3.889801   -0.491213   -2.811889
 C     -6.251418   -1.630879    0.006255
 H     -4.506206   -1.962739    1.172055
 C     -6.768761   -1.202939   -1.208130
 H     -6.299228   -0.459753   -3.172313
 H     -6.915863   -1.955008    0.801740
 H     -7.842956   -1.193972   -1.371493
 C      5.790693   -0.104086   -0.158688
 C      6.211935    0.926740    0.677530
 C      6.723402   -0.762197   -0.955341
 C      7.547561    1.290645    0.720366
 H      5.499760    1.437061    1.314752
 C      8.057925   -0.393122   -0.919108
 H      6.405971   -1.553295   -1.623856
 C      8.472920    0.632614   -0.079538
 H      7.866814    2.090390    1.382473
 H      8.775975   -0.907456   -1.551401
 H      9.520251    0.920281   -0.048879
 C      2.183747   -3.591409   -0.506549
 H      2.362469   -4.143138    0.419186
 H      1.134901   -3.681609   -0.770065
 H      2.778878   -4.057462   -1.292815
 C      0.037181   -2.666739    1.838530
 H     -0.573552   -2.492341    2.724629
 H      0.059619   -3.743234    1.654435
 H      1.048327   -2.328277    2.043257
