71

 Si     0.560845    1.820628   -1.331686
 O     -0.624675    2.023726   -0.258364
 C     -1.810093    2.703377   -0.059072
 C     -2.693855    1.821160    0.776899
 H     -2.288654    2.916628   -1.019541
 C     -2.106270    1.032628    1.753116
 C     -4.070020    1.795302    0.613900
 C     -2.881329    0.206388    2.547826
 H     -1.034453    1.071922    1.875209
 C     -4.851970    0.968881    1.407394
 H     -4.536812    2.421292   -0.138302
 C     -4.259426    0.168870    2.371648
 H     -2.413430   -0.403028    3.314993
 H     -5.928445    0.949219    1.268138
 H     -4.871995   -0.476133    2.995243
 C     -1.523050    4.006419    0.655685
 C     -0.693954    4.911607   -0.155291
 H     -2.461330    4.516260    0.904152
 H     -1.001680    3.784106    1.588646
 C     -0.023650    5.644081   -0.829923
 H      0.570546    6.292673   -1.428049
 Cl    -0.447860    2.468467   -3.003762
 Cl     2.262450    2.869644   -1.600504
 O      1.300700    1.048809    0.149103
 O      0.582134    0.199538   -1.901812
 C      1.710687   -1.156877   -0.066976
 C      0.259568   -1.234680   -0.160540
 C     -1.544378   -0.469121   -1.476925
 C      3.477917    0.381887    0.146935
 C      4.424742   -0.633959    0.066764
 C      2.593797   -2.213257   -0.186844
 C      3.956255   -1.923668   -0.110437
 C     -0.601538   -1.940110    0.653870
 C     -1.959808   -1.899871    0.342632
 C     -2.467136   -1.187752   -0.731310
 H      4.664403   -2.737483   -0.190958
 H     -2.639100   -2.440098    0.985023
 H     -1.757322    0.164737   -2.320923
 N      2.185836    0.099478    0.067859
 N     -0.261140   -0.510638   -1.165778
 H      3.695849    1.432313    0.240581
 C     -3.905080   -1.150650   -1.073944
 C     -4.417912   -0.128503   -1.869256
 C     -4.773356   -2.129942   -0.598671
 C     -5.766899   -0.078271   -2.171406
 H     -3.772147    0.652146   -2.245802
 C     -6.123505   -2.083639   -0.900065
 H     -4.399526   -2.948095    0.002226
 C     -6.625835   -1.054630   -1.685078
 H     -6.148634    0.730361   -2.787997
 H     -6.784711   -2.858473   -0.522902
 H     -7.685555   -1.016344   -1.922088
 C      5.865839   -0.308908    0.149543
 C      6.313565    0.675272    1.027304
 C      6.786218   -0.980600   -0.650348
 C      7.662395    0.979261    1.107864
 H      5.611122    1.196627    1.666462
 C      8.134254   -0.671327   -0.576129
 H      6.449271   -1.735170   -1.350730
 C      8.575298    0.307752    0.304870
 H      8.001324    1.743181    1.801715
 H      8.842542   -1.195734   -1.211148
 H      9.633087    0.548612    0.365263
 C      2.126462   -3.624297   -0.408328
 H      2.178798   -4.193013    0.523043
 H      1.106072   -3.655053   -0.777135
 H      2.773289   -4.115696   -1.135477
 C     -0.119490   -2.703026    1.855249
 H     -0.731813   -2.443387    2.719597
 H     -0.213200   -3.778665    1.689892
 H      0.915770   -2.473153    2.084855
