71

 Si    -0.512157    1.839629   -0.259876
 O      1.101231    1.722999   -0.256221
 C      2.150054    2.145045   -1.048386
 C      3.217491    2.755034   -0.183422
 H      1.788813    2.883123   -1.769974
 C      3.096936    2.714048    1.195547
 C      4.341346    3.343519   -0.751557
 C      4.086717    3.250334    2.005809
 H      2.212693    2.285208    1.639449
 C      5.334108    3.878606    0.053617
 H      4.440456    3.390493   -1.830351
 C      5.211179    3.830351    1.436131
 H      3.974832    3.217993    3.085846
 H      6.207266    4.337771   -0.401578
 H      5.988769    4.250614    2.067617
 C      2.696378    0.948330   -1.808396
 C      1.629568    0.161474   -2.441543
 H      3.396683    1.284886   -2.580348
 H      3.250428    0.297855   -1.134663
 C      0.751421   -0.484467   -2.943251
 H     -0.024409   -1.040009   -3.408475
 Cl    -1.592528    2.858563    1.110787
 Cl    -0.744727    3.137761   -1.830050
 O     -1.375805    0.637555   -1.122158
 O     -0.408543    0.554159    0.994999
 C     -2.048227   -1.137090    0.148580
 C     -0.640308   -1.503275    0.089605
 C      1.477577   -0.685076    0.694495
 C     -3.546223    0.576284   -0.477210
 C     -4.599060   -0.038689    0.184970
 C     -3.041768   -1.791289    0.852658
 C     -4.314997   -1.222053    0.846759
 C     -0.092621   -2.661197   -0.421559
 C      1.294103   -2.801288   -0.346201
 C      2.101060   -1.830647    0.216499
 H     -5.106785   -1.725465    1.385671
 H      1.746268   -3.699669   -0.745273
 H      1.978419    0.169219    1.105347
 N     -2.343676    0.019977   -0.468935
 N      0.169814   -0.549133    0.592532
 H     -3.592673    1.518288   -1.000644
 C      3.576082   -1.923851    0.263690
 C      4.278980   -1.413050    1.351822
 C      4.276444   -2.484878   -0.800239
 C      5.662361   -1.467759    1.378232
 H      3.746977   -0.982563    2.191369
 C      5.660451   -2.534616   -0.777109
 H      3.742307   -2.863075   -1.663228
 C      6.356051   -2.027302    0.312811
 H      6.200214   -1.071822    2.234815
 H      6.197507   -2.967542   -1.616242
 H      7.441727   -2.067279    0.331665
 C     -5.942466    0.580073    0.183643
 C     -6.421615    1.212899   -0.960542
 C     -6.736294    0.540284    1.326599
 C     -7.679129    1.793207   -0.963149
 H     -5.820979    1.240478   -1.861868
 C     -7.990775    1.126963    1.326655
 H     -6.367357    0.068683    2.229302
 C     -8.465468    1.752735    0.180893
 H     -8.045873    2.278229   -1.863232
 H     -8.598630    1.097752    2.226386
 H     -9.450647    2.211012    0.180033
 C     -2.774685   -3.056211    1.619259
 H     -3.106438   -3.925596    1.046715
 H     -1.718401   -3.170046    1.842656
 H     -3.328950   -3.042233    2.557650
 C     -0.934773   -3.727423   -1.064145
 H     -0.468523   -4.050064   -1.995796
 H     -1.012246   -4.599179   -0.410326
 H     -1.934956   -3.367599   -1.285168
