71

 Si     0.460339    1.805196    0.162906
 O     -1.152470    1.662818    0.178299
 C     -2.168751    2.111426    1.023879
 C     -3.154770    2.850087    0.173751
 H     -1.742225    2.796230    1.756602
 C     -4.017780    2.174701   -0.678223
 C     -3.139166    4.237737    0.162039
 C     -4.861139    2.873117   -1.525770
 H     -4.047686    1.095236   -0.679919
 C     -3.982409    4.943625   -0.683421
 H     -2.461965    4.773807    0.817562
 C     -4.844983    4.262309   -1.529584
 H     -5.535891    2.332823   -2.183279
 H     -3.963253    6.029735   -0.680429
 H     -5.506865    4.812956   -2.192114
 C     -2.749210    0.926902    1.761843
 C     -1.701062    0.135838    2.422952
 H     -3.463712    1.275301    2.517297
 H     -3.292045    0.277695    1.080391
 C     -0.835758   -0.508115    2.948995
 H     -0.073884   -1.063758    3.436662
 Cl     1.556635    2.766143   -1.240714
 Cl     0.697442    3.188023    1.664890
 O      1.304113    0.642791    1.098539
 O      0.392476    0.469482   -1.039875
 C      2.003567   -1.187265   -0.072787
 C      0.592965   -1.547177   -0.037939
 C     -1.501112   -0.757061   -0.755401
 C      3.488646    0.552728    0.508477
 C      4.555954   -0.092136   -0.100026
 C      3.013031   -1.874389   -0.720761
 C      4.286363   -1.305522   -0.711601
 C      0.026243   -2.679817    0.507424
 C     -1.357836   -2.821618    0.391984
 C     -2.141053   -1.880445   -0.247985
 H      5.090143   -1.833912   -1.207040
 H     -1.826615   -3.699137    0.817816
 H     -1.983318    0.077519   -1.227242
 N      2.285925   -0.003208    0.497800
 N     -0.197943   -0.616481   -0.610343
 H      3.523790    1.517240    0.990192
 C     -3.612834   -1.984767   -0.352478
 C     -4.262709   -1.604403   -1.523379
 C     -4.360843   -2.430141    0.733084
 C     -5.643400   -1.673432   -1.609164
 H     -3.689993   -1.268087   -2.379514
 C     -5.742299   -2.491914    0.650248
 H     -3.866040   -2.707581    1.655979
 C     -6.385936   -2.114895   -0.521448
 H     -6.140888   -1.382174   -2.529830
 H     -6.318195   -2.832800    1.505945
 H     -7.469361   -2.165272   -0.587115
 C      5.899615    0.526072   -0.096475
 C      6.351577    1.214839    1.026271
 C      6.721145    0.429608   -1.216270
 C      7.609424    1.794422    1.030872
 H      5.729305    1.286954    1.910279
 C      7.975968    1.015514   -1.214799
 H      6.373796   -0.086171   -2.103231
 C      8.423391    1.697287   -0.090201
 H      7.954746    2.323302    1.914581
 H      8.605481    0.941788   -2.096922
 H      9.408805    2.155060   -0.088038
 C      2.763089   -3.173991   -1.433152
 H      3.079535   -4.015292   -0.811973
 H      1.712644   -3.298369   -1.677282
 H      3.340722   -3.204801   -2.356938
 C      0.844039   -3.715206    1.227042
 H      0.343380   -3.997646    2.153817
 H      0.945611   -4.614921    0.615695
 H      1.835488   -3.344407    1.468552
