71

 Si     0.158231    0.943042    1.829423
 O     -0.993728    2.114286    1.753196
 C     -1.079259    3.193100    0.887446
 C     -1.970492    2.797010   -0.255284
 H     -0.088762    3.427787    0.492120
 C     -3.327866    2.608599   -0.046437
 C     -1.433762    2.523531   -1.503272
 C     -4.144828    2.166495   -1.073995
 H     -3.751911    2.808380    0.928536
 C     -2.240169    2.057783   -2.530505
 H     -0.374283    2.665173   -1.674246
 C     -3.600062    1.880761   -2.319465
 H     -5.209362    2.043321   -0.899265
 H     -1.806999    1.843996   -3.503676
 H     -4.236140    1.527839   -3.126559
 C     -1.589175    4.391125    1.653547
 C     -0.633961    4.836744    2.680476
 H     -1.784088    5.227037    0.970566
 H     -2.526989    4.126393    2.142588
 C      0.145700    5.203226    3.516683
 H      0.826230    5.542284    4.260270
 Cl    -0.778132   -0.026859    3.339748
 Cl     1.784223    2.098601    2.130953
 O     -0.132275    0.611894    0.158287
 O      1.138054   -0.553026    1.711562
 C      0.097332   -1.579002   -0.359855
 C      1.507606   -1.225475   -0.427925
 C      3.257757   -0.362515    0.884418
 C     -2.017575   -0.653948    0.132338
 C     -2.631293   -1.890953   -0.006795
 C     -0.443370   -2.842745   -0.496849
 C     -1.819495   -2.969723   -0.316061
 C      2.339274   -1.356552   -1.521768
 C      3.673749   -0.983592   -1.361335
 C      4.163288   -0.500109   -0.160771
 H     -2.266892   -3.950088   -0.415721
 H      4.345485   -1.087921   -2.202954
 H      3.487070    0.042287    1.855582
 N     -0.706847   -0.550684   -0.035956
 N      1.987278   -0.698817    0.717432
 H     -2.499073    0.268481    0.408934
 C      5.577417   -0.109818    0.030853
 C      6.218226   -0.368272    1.239903
 C      6.278653    0.521576   -0.992707
 C      7.542483   -0.005224    1.420814
 H      5.690342   -0.871912    2.040806
 C      7.600572    0.891953   -0.809590
 H      5.786884    0.745252   -1.931586
 C      8.235808    0.627240    0.396997
 H      8.034588   -0.218614    2.365383
 H      8.135691    1.391673   -1.611980
 H      9.273682    0.915267    0.539969
 C     -4.086883   -2.039129    0.209949
 C     -4.975195   -1.125555   -0.346134
 C     -4.574928   -3.098670    0.969530
 C     -6.338434   -1.268886   -0.146897
 H     -4.603517   -0.307753   -0.948084
 C     -5.937374   -3.237781    1.175450
 H     -3.889479   -3.806392    1.420358
 C     -6.821607   -2.324004    0.615683
 H     -7.026182   -0.555299   -0.591306
 H     -6.309878   -4.062083    1.776815
 H     -7.890726   -2.435338    0.774456
 C      0.404797   -4.047286   -0.793912
 H      0.321592   -4.320872   -1.848387
 H      1.449853   -3.865961   -0.562940
 H      0.060263   -4.894378   -0.200579
 C      1.841068   -1.865462   -2.845554
 H      2.244039   -1.249654   -3.650285
 H      2.176572   -2.891787   -3.010980
 H      0.757185   -1.839995   -2.901454
