71

 Si    -0.354187    0.867389   -2.268642
 O     -1.620020    1.264061   -1.337109
 C     -2.012247    2.292655   -0.490281
 C     -0.915214    2.489057    0.512384
 H     -2.127061    3.205279   -1.085241
 C     -0.756491    1.620927    1.577083
 C      0.075466    3.418855    0.244967
 C      0.392518    1.650630    2.343895
 H     -1.529560    0.906575    1.807380
 C      1.228847    3.456117    1.007279
 H     -0.041947    4.106572   -0.583433
 C      1.396264    2.561720    2.052270
 H      0.504117    0.969703    3.181282
 H      1.998689    4.188984    0.784012
 H      2.299388    2.589101    2.655688
 C     -3.353874    1.923169    0.094554
 C     -4.327333    1.591590   -0.955158
 H     -3.740361    2.749713    0.703793
 H     -3.249006    1.058119    0.745029
 C     -5.107077    1.304514   -1.820951
 H     -5.813183    1.061267   -2.578269
 Cl    -1.413623    0.599851   -3.996137
 Cl     1.039655    2.132105   -2.998934
 O      0.539695    0.857511   -0.706628
 O     -0.157014   -0.834301   -2.087839
 C      1.334072   -1.128895   -0.031774
 C     -0.083853   -1.417205    0.118387
 C     -2.123212   -1.307555   -1.066196
 C      2.790612    0.618040   -0.638483
 C      3.906615   -0.171044   -0.380468
 C      2.392966   -1.985526    0.196607
 C      3.680314   -1.475659    0.020117
 C     -0.740542   -1.777785    1.277320
 C     -2.129740   -1.898855    1.217074
 C     -2.849755   -1.661914    0.060050
 H      4.524662   -2.125434    0.208417
 H     -2.660902   -2.179051    2.117478
 H     -2.532587   -1.051656   -2.028413
 N      1.574299    0.125252   -0.470846
 N     -0.808078   -1.203302   -0.993893
 H      2.809276    1.628872   -1.006836
 C     -4.324458   -1.721420   -0.005545
 C     -4.958270   -2.186836   -1.153479
 C     -5.092111   -1.277357    1.066910
 C     -6.340553   -2.208140   -1.227902
 H     -4.374221   -2.547527   -1.991324
 C     -6.474002   -1.290549    0.990332
 H     -4.612755   -0.898279    1.960647
 C     -7.101192   -1.756284   -0.157836
 H     -6.825048   -2.580959   -2.125772
 H     -7.063482   -0.933160    1.829714
 H     -8.186056   -1.769277   -0.217487
 C      5.262953    0.391254   -0.561809
 C      5.526566    1.709307   -0.197422
 C      6.285137   -0.387189   -1.097360
 C      6.795374    2.239728   -0.361545
 H      4.744088    2.321637    0.234218
 C      7.552220    0.145260   -1.269338
 H      6.088791   -1.408115   -1.401841
 C      7.810355    1.459056   -0.899704
 H      6.992175    3.266526   -0.066839
 H      8.340459   -0.468172   -1.696342
 H      8.805027    1.875822   -1.032090
 C      2.190126   -3.419887    0.596468
 H      2.467879   -3.568938    1.642313
 H      1.159765   -3.731723    0.459143
 H      2.829398   -4.061244   -0.011897
 C     -0.015293   -2.005206    2.573295
 H     -0.596575   -1.595775    3.399041
 H      0.110137   -3.075545    2.753507
 H      0.962976   -1.536450    2.570410
