71

 Si     0.194991    1.206528    2.124439
 O      1.254548    1.877686    1.097724
 C      1.478130    2.077120   -0.251937
 C      0.200405    2.413838   -0.950993
 H      1.867210    1.153257   -0.680652
 C     -0.613207    3.402547   -0.427967
 C     -0.246097    1.654271   -2.017974
 C     -1.879838    3.610593   -0.939811
 H     -0.263619    3.993058    0.406867
 C     -1.513513    1.857215   -2.538451
 H      0.391086    0.887845   -2.439098
 C     -2.337511    2.829964   -1.993314
 H     -2.513297    4.383155   -0.513931
 H     -1.859428    1.255860   -3.374732
 H     -3.331812    2.992265   -2.400027
 C      2.539895    3.143663   -0.380255
 C      3.787629    2.731484    0.283313
 H      2.747733    3.355390   -1.436830
 H      2.178246    4.062353    0.084024
 C      4.796038    2.388061    0.836502
 H      5.700338    2.099185    1.312848
 Cl    -1.492806    2.026073    2.871692
 Cl     1.389175    1.494910    3.758033
 O     -0.700159    0.801046    0.628292
 O      0.395472   -0.499962    2.190872
 C     -0.982881   -1.386134    0.221617
 C      0.464619   -1.347698    0.073922
 C      2.432090   -0.694741    1.206147
 C     -2.823172    0.020415    0.639971
 C     -3.713508   -1.039390    0.505980
 C     -1.802137   -2.493655    0.119635
 C     -3.175340   -2.291022    0.262902
 C      1.187380   -1.681129   -1.054420
 C      2.572250   -1.525871   -0.998816
 C      3.224612   -1.041488    0.122284
 H     -3.836176   -3.142862    0.172716
 H      3.155567   -1.792030   -1.870554
 H      2.772040   -0.239064    2.121924
 N     -1.522153   -0.184084    0.511476
 N      1.120381   -0.858963    1.141059
 H     -3.087951    1.036616    0.875352
 C      4.689099   -0.857920    0.182970
 C      5.376713   -1.104079    1.367870
 C      5.389901   -0.422729   -0.937621
 C      6.747815   -0.920330    1.430019
 H      4.846253   -1.455557    2.244602
 C      6.759458   -0.232140   -0.874391
 H      4.863807   -0.204215   -1.858364
 C      7.441454   -0.481928    0.309496
 H      7.276301   -1.122936    2.357164
 H      7.295571    0.117270   -1.752010
 H      8.516981   -0.335150    0.358818
 C     -5.166884   -0.801232    0.643587
 C     -5.735394    0.361519    0.129279
 C     -5.977843   -1.732060    1.286713
 C     -7.096215    0.587615    0.252018
 H     -5.118497    1.087376   -0.386685
 C     -7.337567   -1.502535    1.416936
 H     -5.545332   -2.631845    1.707242
 C     -7.899691   -0.343274    0.897887
 H     -7.530845    1.494011   -0.159603
 H     -7.959939   -2.231321    1.928277
 H     -8.966811   -0.164515    0.997550
 C     -1.256349   -3.874409   -0.113428
 H     -1.493902   -4.213887   -1.124116
 H     -0.180394   -3.908877    0.023766
 H     -1.716338   -4.571130    0.588769
 C      0.524450   -2.171915   -2.310918
 H      1.023721   -1.747177   -3.181722
 H      0.599541   -3.259419   -2.381533
 H     -0.524295   -1.893514   -2.342397
