65

 Si    -0.401796    1.790466    1.598873
 O      0.724712    2.105374    0.480558
 C      0.610974    2.306477   -0.892333
 C      1.258028    1.148666   -1.589585
 H     -0.440666    2.327722   -1.168226
 C      2.637155    1.022570   -1.626201
 C      0.474086    0.167203   -2.176717
 C      3.231786   -0.064527   -2.245395
 H      3.253606    1.787081   -1.176229
 C      1.059793   -0.925768   -2.795158
 H     -0.601216    0.265257   -2.156259
 C      2.442266   -1.043725   -2.831541
 H      4.313604   -0.146214   -2.269891
 H      0.435211   -1.684091   -3.259110
 H      2.904754   -1.895443   -3.322640
 C      1.216052    3.652145   -1.212459
 C      0.434752    4.725126   -0.576341
 H      1.238982    3.817890   -2.296457
 H      2.239745    3.689854   -0.838958
 C     -0.223702    5.575424   -0.043114
 H     -0.797552    6.339727    0.424658
 Cl     0.448617    2.826046    3.123764
 Cl    -2.264302    2.520510    1.804035
 O     -1.039966    0.697847    0.244308
 O     -0.045839    0.267909    2.282457
 C     -1.327513   -1.473575    0.820100
 C      0.125127   -1.492118    0.832066
 C      2.018764   -0.263827    1.509967
 C     -3.146999   -0.135738    0.181648
 C     -4.053166   -1.165109    0.446808
 C     -2.159506   -2.534279    1.062039
 C     -3.533693   -2.360806    0.901785
 C      0.919552   -2.376426    0.157931
 C      2.299855   -2.185918    0.170504
 C      2.883688   -1.127061    0.835725
 H     -1.740133   -3.479361    1.384015
 H     -4.208741   -3.178408    1.124948
 H      0.468771   -3.185612   -0.401472
 H      2.932694   -2.874035   -0.374751
 N     -1.848148   -0.284647    0.443150
 N      0.705180   -0.480818    1.500389
 C      4.336935   -0.890487    0.892898
 C      5.208234   -1.976116    0.928356
 C      4.853434    0.400248    0.903444
 C      6.576622   -1.774233    0.970696
 H      4.819328   -2.986771    0.942560
 C      6.222015    0.603123    0.941497
 H      4.195477    1.253857    0.868854
 C      7.087052   -0.482255    0.974715
 H      7.246262   -2.628779    1.005075
 H      6.613400    1.616261    0.945593
 H      8.161208   -0.321399    1.007644
 C     -5.487160   -0.918240    0.216306
 C     -6.270283   -1.884564   -0.407023
 C     -6.064453    0.276418    0.632152
 C     -7.618938   -1.654914   -0.619222
 H     -5.823784   -2.812392   -0.744400
 C     -7.414279    0.502942    0.425791
 H     -5.466962    1.026823    1.131331
 C     -8.192945   -0.460573   -0.201780
 H     -8.223327   -2.409772   -1.113886
 H     -7.859691    1.435877    0.758726
 H     -9.251817   -0.280332   -0.366331
 F     -3.487112    0.961782   -0.351759
 F      2.395967    0.727707    2.181871
