65

 Si     0.185645    1.004621    1.908278
 O      1.047116    1.787420    0.772036
 C      0.828038    2.083681   -0.568779
 C     -0.598641    2.481234   -0.784719
 H      1.030604    1.199040   -1.173350
 C     -1.218013    3.310776    0.130645
 C     -1.322244    1.980737   -1.852951
 C     -2.556082    3.630530   -0.006351
 H     -0.649585    3.702822    0.961535
 C     -2.660198    2.303058   -2.001215
 H     -0.839443    1.334723   -2.576245
 C     -3.282073    3.124857   -1.074272
 H     -3.031472    4.279191    0.722899
 H     -3.220940    1.909625   -2.844042
 H     -4.331914    3.377818   -1.187550
 C      1.794387    3.178995   -0.967198
 C      3.138585    2.657534   -1.275646
 H      1.851003    3.904130   -0.154264
 H      1.433941    3.696323   -1.864065
 C      4.213857    2.232306   -1.601596
 H      5.172691    1.880198   -1.893703
 Cl    -1.645224    1.186443    2.734207
 Cl     1.216881    1.820903    3.455430
 O     -0.564500    0.285978    0.434330
 O      0.763641   -0.584622    2.120838
 C     -0.613090   -1.966215    0.353184
 C      0.826486   -1.820427    0.189389
 C      2.733382   -0.698407    1.015460
 C     -2.592235   -0.693645    0.384808
 C     -3.383531   -1.844533    0.416938
 C     -1.332683   -3.131405    0.347319
 C     -2.725304   -3.058899    0.409525
 C      1.569495   -2.353221   -0.829056
 C      2.929201   -2.049839   -0.907358
 C      3.550667   -1.228549    0.014231
 H     -0.816200   -4.082465    0.307490
 H     -3.307404   -3.972257    0.443296
 H      1.091995   -2.983378   -1.568820
 H      3.515129   -2.462707   -1.719726
 N     -1.265694   -0.787712    0.424900
 N      1.439102   -1.012662    1.074276
 C      4.997025   -0.947445    0.033646
 C      5.889411   -1.932833   -0.385938
 C      5.489128    0.272977    0.481894
 C      7.252300   -1.699850   -0.360739
 H      5.522211   -2.896955   -0.715128
 C      6.853479    0.507831    0.503573
 H      4.816269    1.056775    0.791425
 C      7.737861   -0.475773    0.084273
 H      7.938077   -2.477795   -0.683546
 H      7.224593    1.467846    0.850237
 H      8.808427   -0.290570    0.106103
 C     -4.847714   -1.689270    0.445613
 C     -5.653115   -2.504998   -0.342755
 C     -5.429429   -0.730787    1.268117
 C     -7.029452   -2.358504   -0.314001
 H     -5.205185   -3.245049   -0.995246
 C     -6.805841   -0.588917    1.301283
 H     -4.812208   -0.102894    1.895630
 C     -7.607687   -1.400265    0.509205
 H     -7.652492   -2.992938   -0.937783
 H     -7.253629    0.157600    1.950720
 H     -8.688010   -1.285830    0.533481
 F     -3.057874    0.475196    0.279106
 F      3.138477    0.060447    1.930723
