65

 Si    -0.689143   -1.895616   -0.619164
 O      0.910889   -1.906341   -0.460003
 C      2.021554   -2.228209    0.293577
 C      2.090934   -1.294821    1.469579
 H      2.880011   -2.037060   -0.355506
 C      0.945250   -1.026695    2.197668
 C      3.278844   -0.670809    1.821065
 C      0.966036   -0.113595    3.236078
 H      0.033173   -1.537050    1.947128
 C      3.311093    0.239033    2.866869
 H      4.186103   -0.885435    1.270521
 C      2.150998    0.528817    3.570827
 H      0.055199    0.089995    3.791135
 H      4.246095    0.726638    3.128037
 H      2.172599    1.246214    4.386582
 C      2.074129   -3.683506    0.687473
 C      2.023522   -4.541184   -0.506326
 H      1.243803   -3.929263    1.346616
 H      3.009875   -3.873511    1.227703
 C      1.980354   -5.214295   -1.499215
 H      1.944521   -5.830073   -2.366320
 Cl    -1.732621   -2.415889   -2.259757
 Cl    -1.170188   -3.493045    0.556441
 O     -1.448893   -0.869813    0.517708
 O     -0.421445   -0.342186   -1.480474
 C     -1.620561    1.351514    0.002374
 C     -0.165943    1.363028    0.005590
 C      1.667771    0.470997   -1.167226
 C     -3.492628   -0.083390   -0.014646
 C     -4.359336    0.968542   -0.312943
 C     -2.425063    2.429905   -0.256122
 C     -3.796833    2.226776   -0.410284
 C      0.653774    2.218975    0.687399
 C      2.021207    2.179268    0.429711
 C      2.557545    1.336424   -0.524278
 H     -1.982827    3.410010   -0.382695
 H     -4.436492    3.069065   -0.647399
 H      0.233084    2.910587    1.406241
 H      2.681817    2.839843    0.975893
 N     -2.186797    0.139575    0.134272
 N      0.374694    0.481490   -0.859531
 C      3.983355    1.338611   -0.900051
 C      4.692195    2.537611   -0.879716
 C      4.638206    0.170315   -1.272356
 C      6.033082    2.566842   -1.220911
 H      4.192639    3.461044   -0.614704
 C      5.980460    0.196377   -1.609189
 H      4.112205   -0.769475   -1.291789
 C      6.682246    1.393845   -1.584185
 H      6.571508    3.510112   -1.206839
 H      6.479247   -0.725839   -1.892835
 H      7.735211    1.413983   -1.851613
 C     -5.793879    0.682568   -0.490129
 C     -6.745087    1.522046    0.081627
 C     -6.200980   -0.418470   -1.235336
 C     -8.093675    1.258435   -0.085184
 H     -6.433723    2.373626    0.674900
 C     -7.550008   -0.677727   -1.406818
 H     -5.470446   -1.068582   -1.696935
 C     -8.497776    0.157852   -0.830943
 H     -8.831442    1.912384    0.370681
 H     -7.861103   -1.536543   -1.994444
 H     -9.556256   -0.049285   -0.963269
 F     -3.860092   -1.279989    0.148947
 F      2.008007   -0.324651   -2.083507
