65

 Si    -0.994684   -1.754493   -0.613363
 O      0.610253   -1.886549   -0.644478
 C      1.552064   -2.686713   -0.017990
 C      2.226798   -1.802977    0.992469
 H      1.041817   -3.497252    0.507840
 C      1.401904   -1.163032    1.909119
 C      3.588685   -1.566001    1.033126
 C      1.924007   -0.284554    2.837389
 H      0.344173   -1.365365    1.890351
 C      4.121555   -0.681887    1.962244
 H      4.251110   -2.069994    0.343346
 C      3.291650   -0.033753    2.861319
 H      1.266234    0.201505    3.551545
 H      5.192116   -0.500295    1.976705
 H      3.708498    0.657001    3.588891
 C      2.431881   -3.286357   -1.081503
 C      1.617346   -4.038765   -2.045898
 H      3.176604   -3.957135   -0.637394
 H      2.959771   -2.500394   -1.616750
 C      0.926439   -4.637774   -2.823031
 H      0.327353   -5.181440   -3.514437
 Cl    -2.324299   -1.924165   -2.117776
 Cl    -1.452793   -3.478061    0.377368
 O     -1.484837   -0.827914    0.736314
 O     -0.665333   -0.137736   -1.320820
 C     -1.632586    1.434213    0.422093
 C     -0.185237    1.397281    0.280615
 C      1.501817    0.503437   -1.095911
 C     -3.549535    0.064298    0.547677
 C     -4.402318    1.161771    0.422135
 C     -2.417676    2.552550    0.333004
 C     -3.805512    2.404152    0.332770
 C      0.729717    2.156179    0.954310
 C      2.069059    2.066525    0.584960
 C      2.486238    1.275295   -0.467902
 H     -1.954563    3.524741    0.220991
 H     -4.434777    3.280888    0.231589
 H      0.405575    2.809417    1.754629
 H      2.802562    2.653354    1.121287
 N     -2.227249    0.233832    0.541821
 N      0.236375    0.563761   -0.691773
 C      3.876150    1.261903   -0.961368
 C      4.663328    2.402861   -0.814466
 C      4.425077    0.141175   -1.571868
 C      5.973546    2.417427   -1.258142
 H      4.249972    3.298163   -0.368381
 C      5.736547    0.150720   -2.013714
 H      3.841326   -0.752875   -1.694345
 C      6.516369    1.287781   -1.857129
 H      6.571104    3.316767   -1.140023
 H      6.149538   -0.737252   -2.483374
 H      7.545350    1.296277   -2.206105
 C     -5.857825    0.933294    0.403228
 C     -6.701462    1.761831    1.136647
 C     -6.392147   -0.102791   -0.354665
 C     -8.069453    1.551231    1.117757
 H     -6.289511    2.562330    1.739658
 C     -7.760881   -0.308701   -0.377798
 H     -5.746592   -0.742500   -0.940743
 C     -8.600953    0.515441    0.359250
 H     -8.722451    2.195755    1.699073
 H     -8.172159   -1.116677   -0.975836
 H     -9.674808    0.350052    0.343107
 F     -3.943909   -1.126009    0.685818
 F      1.723641   -0.233800   -2.093462
