65

 Si     0.619502    1.050718    1.192314
 O     -0.198414    2.443783    0.959101
 C     -1.428307    2.998222    1.229220
 C     -2.432758    2.531253    0.215483
 H     -1.763221    2.686673    2.222978
 C     -2.023644    2.306435   -1.085643
 C     -3.743361    2.261684    0.574446
 C     -2.891079    1.753935   -2.008839
 H     -1.007394    2.537046   -1.360314
 C     -4.624059    1.721421   -0.349430
 H     -4.073035    2.449096    1.590235
 C     -4.194896    1.450611   -1.638916
 H     -2.553266    1.567586   -3.023966
 H     -5.646033    1.501027   -0.055875
 H     -4.880236    1.016635   -2.361379
 C     -1.265199    4.501173    1.213600
 C     -0.330953    4.946346    2.260400
 H     -2.231738    4.996687    1.366739
 H     -0.879966    4.801308    0.237568
 C      0.428614    5.288649    3.125069
 H      1.091524    5.613738    3.890665
 Cl    -0.123315    0.498364    2.981902
 Cl     2.405740    1.955406    0.932895
 O     -0.105128    0.482480   -0.249325
 O      1.356598   -0.592746    1.163715
 C      0.271772   -1.661925   -0.961929
 C      1.687979   -1.330281   -0.996018
 C      3.486752   -0.763049    0.411067
 C     -1.794993   -0.983621   -0.068722
 C     -2.400452   -2.194955   -0.398044
 C     -0.263987   -2.875224   -1.312064
 C     -1.610408   -3.125287   -1.045775
 C      2.547957   -1.557781   -2.035938
 C      3.911182   -1.323024   -1.849910
 C      4.409589   -0.935650   -0.623743
 H      0.372668   -3.634833   -1.747722
 H     -2.037740   -4.086143   -1.308817
 H      2.158950   -1.904173   -2.985183
 H      4.596428   -1.458720   -2.678363
 N     -0.528638   -0.740287   -0.399640
 N      2.177420   -0.879699    0.182361
 C      5.834065   -0.691755   -0.341050
 C      6.803277   -1.569595   -0.815204
 C      6.211821    0.428199    0.391261
 C      8.141669   -1.332830   -0.551785
 H      6.512911   -2.450405   -1.375601
 C      7.550436    0.667808    0.648481
 H      5.463930    1.122611    0.748950
 C      8.516679   -0.212931    0.179998
 H      8.894102   -2.026162   -0.916351
 H      7.839480    1.547147    1.216610
 H      9.567090   -0.026209    0.386328
 C     -3.823400   -2.379421   -0.065936
 C     -4.687222   -2.924998   -1.010183
 C     -4.310276   -1.995881    1.178208
 C     -6.030806   -3.078674   -0.714684
 H     -4.315356   -3.212124   -1.986615
 C     -5.652745   -2.155216    1.475000
 H     -3.644686   -1.584921    1.924149
 C     -6.515221   -2.693560    0.529226
 H     -6.702257   -3.497548   -1.458648
 H     -6.025910   -1.858667    2.450924
 H     -7.569639   -2.814655    0.762408
 F     -2.374212   -0.047852    0.536521
 F      3.825817   -0.525242    1.603789
