65

 Si     0.486954    0.670500    1.607676
 O     -0.648772    1.840896    1.749857
 C     -0.972671    2.876848    0.886405
 C     -2.141887    2.424203    0.062980
 H     -0.130239    3.074263    0.221104
 C     -3.393399    2.292659    0.638977
 C     -1.948811    1.989248   -1.236716
 C     -4.433215    1.704442   -0.059414
 H     -3.552861    2.625554    1.654636
 C     -2.978667    1.386618   -1.938095
 H     -0.978074    2.100691   -1.698728
 C     -4.223934    1.236400   -1.347554
 H     -5.406920    1.601594    0.409101
 H     -2.811420    1.041729   -2.954382
 H     -5.034452    0.764910   -1.894733
 C     -1.247686    4.115573    1.703518
 C     -0.040763    4.600881    2.392068
 H     -2.005872    3.884478    2.451885
 H     -1.631459    4.919074    1.062881
 C      0.943807    5.001826    2.950097
 H      1.805926    5.372479    3.450278
 Cl    -0.037874   -0.234852    3.329506
 Cl     2.154299    1.783695    1.470619
 O     -0.063158    0.426586   -0.001480
 O      1.301237   -0.889514    1.246399
 C      0.208315   -1.570771   -1.042473
 C      1.626256   -1.248802   -1.016814
 C      3.413241   -0.803548    0.447072
 C     -1.829630   -0.961922   -0.033801
 C     -2.485707   -2.073244   -0.558577
 C     -0.373469   -2.688908   -1.581471
 C     -1.732459   -2.915597   -1.355670
 C      2.485532   -1.291839   -2.081605
 C      3.839374   -1.030884   -1.870287
 C      4.332243   -0.789752   -0.604534
 H      0.231028   -3.396072   -2.135659
 H     -2.201070   -3.800635   -1.770806
 H      2.099332   -1.507815   -3.069880
 H      4.521468   -1.021391   -2.712280
 N     -0.560121   -0.717754   -0.345733
 N      2.108902   -0.959342    0.214192
 C      5.748105   -0.523862   -0.298559
 C      6.747851   -1.283532   -0.897344
 C      6.087689    0.497366    0.581764
 C      8.078237   -1.028144   -0.611934
 H      6.488204   -2.088734   -1.574373
 C      7.418161    0.756279    0.861837
 H      5.316299    1.101158    1.039673
 C      8.414864   -0.006839    0.267812
 H      8.854519   -1.629953   -1.075596
 H      7.676920    1.558659    1.546520
 H      9.458931    0.194657    0.491654
 C     -3.915796   -2.249468   -0.256452
 C     -4.796783   -2.595709   -1.275824
 C     -4.393294   -2.048218    1.033218
 C     -6.148064   -2.731951   -1.008803
 H     -4.431399   -2.739090   -2.285748
 C     -5.743931   -2.189917    1.300498
 H     -3.715391   -1.793689    1.835672
 C     -6.623466   -2.528347    0.280663
 H     -6.832513   -2.995125   -1.810126
 H     -6.109996   -2.036528    2.311478
 H     -7.684096   -2.635435    0.491477
 F     -2.341596   -0.131034    0.754443
 F      3.753220   -0.705043    1.659489
