65

 Si     0.343571    1.251510    0.023996
 O     -1.229958    0.944516    0.166634
 C     -2.388807    1.521617    0.664550
 C     -2.484586    2.939769    0.190311
 H     -3.202138    0.948162    0.205659
 C     -2.160618    3.176845   -1.139860
 C     -2.863703    3.998489    0.996121
 C     -2.200007    4.456523   -1.657957
 H     -1.872878    2.346962   -1.767978
 C     -2.911830    5.286453    0.479026
 H     -3.120365    3.834185    2.034251
 C     -2.576383    5.519462   -0.844460
 H     -1.937652    4.627251   -2.697721
 H     -3.209602    6.110811    1.120683
 H     -2.608421    6.528404   -1.245657
 C     -2.442138    1.311501    2.156000
 C     -2.230345   -0.106661    2.489517
 H     -3.412983    1.623731    2.556978
 H     -1.662428    1.898434    2.639701
 C     -2.050070   -1.260507    2.768996
 H     -1.918258   -2.270385    3.068821
 Cl     1.377729    2.121434   -1.474490
 Cl     0.519629    2.752315    1.389052
 O      1.220256    0.178879    1.019503
 O      0.300905   -0.162593   -1.084882
 C      1.939762   -1.749229    0.010688
 C      0.535891   -2.132102    0.014964
 C     -1.560964   -1.442923   -0.795019
 C      3.397852    0.058190    0.428203
 C      4.486918   -0.635388   -0.102177
 C      2.975985   -2.492589   -0.485886
 C      4.249472   -1.922770   -0.540540
 C      0.002652   -3.291456    0.503589
 C     -1.367888   -3.509101    0.354312
 C     -2.172268   -2.597447   -0.294223
 H      2.787139   -3.488325   -0.866720
 H      5.069260   -2.491155   -0.964592
 H      0.641261   -4.010005    1.002390
 H     -1.814994   -4.411389    0.755192
 N      2.190757   -0.506387    0.462017
 N     -0.264018   -1.232286   -0.596658
 C     -3.620030   -2.777894   -0.502139
 C     -4.110030   -3.987977   -0.981557
 C     -4.498948   -1.743214   -0.209142
 C     -5.471072   -4.157402   -1.173597
 H     -3.427549   -4.794475   -1.222617
 C     -5.859838   -1.914022   -0.395050
 H     -4.122363   -0.811731    0.184195
 C     -6.347640   -3.120505   -0.880195
 H     -5.848129   -5.101631   -1.555871
 H     -6.541793   -1.102829   -0.157491
 H     -7.415659   -3.253730   -1.029600
 C      5.797900    0.035112   -0.155003
 C      6.947740   -0.654286    0.217041
 C      5.889712    1.353551   -0.586862
 C      8.180497   -0.026769    0.164567
 H      6.880057   -1.677599    0.566935
 C      7.123729    1.978207   -0.644686
 H      5.003620    1.892398   -0.893498
 C      8.269756    1.290864   -0.267349
 H      9.073829   -0.566920    0.464465
 H      7.189253    3.006707   -0.987485
 H      9.237174    1.783911   -0.309588
 F      3.468348    1.221511    0.909072
 F     -2.174298   -0.594021   -1.496877
