65

 Si    -0.815564    0.597902    1.803134
 O     -0.052440    1.512297    0.705119
 C     -0.398085    2.062079   -0.510776
 C     -0.266629    3.559060   -0.426773
 H     -1.429666    1.798672   -0.758221
 C      0.485630    4.124884    0.588027
 C     -0.871409    4.379686   -1.371202
 C      0.635496    5.500804    0.666860
 H      0.930867    3.486907    1.334219
 C     -0.722952    5.755531   -1.297694
 H     -1.465492    3.943242   -2.167286
 C      0.033302    6.319495   -0.278390
 H      1.220765    5.933462    1.473094
 H     -1.200974    6.390016   -2.038774
 H      0.149222    7.398062   -0.219438
 C      0.513354    1.521450   -1.593880
 C      0.219357    0.146594   -2.023974
 H      1.542426    1.585809   -1.247043
 H      0.433862    2.152634   -2.485433
 C     -0.024117   -0.953985   -2.438245
 H     -0.228606   -1.916071   -2.838803
 Cl    -2.780279    0.396960    2.183980
 Cl    -0.376535    1.726778    3.437002
 O     -1.037587   -0.478026    0.345947
 O      0.321612   -0.609026    2.213322
 C     -0.158125   -2.559113    0.552107
 C      1.107560   -1.851179    0.462006
 C      2.200572    0.112869    1.162069
 C     -2.463444   -2.236424    0.247182
 C     -2.714722   -3.605296    0.374410
 C     -0.333997   -3.913079    0.649515
 C     -1.628580   -4.428905    0.590950
 C      2.102045   -2.106254   -0.440868
 C      3.149203   -1.193331   -0.563437
 C      3.205720   -0.051499    0.208485
 H      0.528110   -4.555370    0.780348
 H     -1.788607   -5.494520    0.704404
 H      2.028540   -2.967496   -1.091670
 H      3.914068   -1.358169   -1.313524
 N     -1.233488   -1.749593    0.411834
 N      1.210460   -0.770786    1.253394
 C      4.242792    0.988330    0.091844
 C      5.573727    0.630725   -0.097335
 C      3.891147    2.332523    0.155084
 C      6.545654    1.609471   -0.217933
 H      5.856891   -0.414562   -0.132355
 C      4.861956    3.310321    0.028537
 H      2.860745    2.624545    0.290570
 C      6.190745    2.951093   -0.156846
 H      7.584219    1.323201   -0.357026
 H      4.577342    4.357431    0.073665
 H      6.953067    3.719502   -0.252978
 C     -4.104988   -4.080338    0.261415
 C     -4.393859   -5.219478   -0.483290
 C     -5.130269   -3.399336    0.908115
 C     -5.698868   -5.670020   -0.586207
 H     -3.601064   -5.747766   -0.999450
 C     -6.434130   -3.853722    0.810262
 H     -4.913772   -2.521905    1.501817
 C     -6.720995   -4.987645    0.061714
 H     -5.918900   -6.555455   -1.175592
 H     -7.229025   -3.320115    1.323119
 H     -7.745344   -5.341560   -0.017112
 F     -3.360603   -1.398842   -0.061410
 F      2.172662    1.056530    1.989415
