65

 Si     0.364890    1.297555   -2.083249
 O     -0.880220    1.857059   -1.211686
 C     -1.083237    2.478289    0.017791
 C     -1.398705    1.444455    1.063660
 H     -1.975821    3.099745   -0.121691
 C     -0.437361    0.895302    1.896706
 C     -2.711749    1.014417    1.184274
 C     -0.773626   -0.082332    2.816698
 H      0.580923    1.236536    1.835500
 C     -3.061929    0.044281    2.110344
 H     -3.474723    1.451110    0.553275
 C     -2.089358   -0.512404    2.926771
 H     -0.007703   -0.499754    3.464262
 H     -4.096829   -0.273307    2.193136
 H     -2.356312   -1.271927    3.656504
 C      0.075522    3.379841    0.356353
 C      0.279938    4.379830   -0.700289
 H      0.981886    2.793478    0.458083
 H     -0.112000    3.892690    1.306181
 C      0.429875    5.180540   -1.581412
 H      0.575147    5.890494   -2.360822
 Cl    -0.348941    1.878073   -3.890102
 Cl     2.272890    1.870757   -2.374495
 O      0.847621    0.689139   -0.428859
 O      0.104521   -0.364859   -2.343648
 C      1.250670   -1.535411   -0.301046
 C     -0.187628   -1.647899   -0.473368
 C     -2.019998   -0.764423   -1.663650
 C      2.933833    0.041681    0.135774
 C      3.894220   -0.957260    0.300355
 C      2.136229   -2.564839   -0.115677
 C      3.470392   -2.264256    0.154354
 C     -1.031903   -2.361040    0.330415
 C     -2.406104   -2.260094    0.121069
 C     -2.934292   -1.449438   -0.862388
 H      1.789718   -3.587831   -0.193782
 H      4.189883   -3.066808    0.265484
 H     -0.629199   -2.956946    1.138552
 H     -3.081086   -2.804987    0.768765
 N      1.689016   -0.260933   -0.228657
 N     -0.711671   -0.898681   -1.458746
 C     -4.376690   -1.282553   -1.111250
 C     -5.231577   -2.373174   -0.978817
 C     -4.896354   -0.041946   -1.463659
 C     -6.590092   -2.225675   -1.198404
 H     -4.834719   -3.348029   -0.722741
 C     -6.255868    0.107068   -1.677403
 H     -4.248375    0.815650   -1.563348
 C     -7.105356   -0.983372   -1.546670
 H     -7.248169   -3.084223   -1.099962
 H     -6.652290    1.081420   -1.947837
 H     -8.171830   -0.865649   -1.718504
 C      5.276065   -0.561752    0.622178
 C      5.995642   -1.258615    1.587657
 C      5.869157    0.502736   -0.047742
 C      7.295880   -0.888717    1.886380
 H      5.535222   -2.081677    2.121192
 C      7.171299    0.868157    0.246687
 H      5.322809    1.039899   -0.810792
 C      7.885661    0.175238    1.215297
 H      7.849925   -1.431686    2.646654
 H      7.630130    1.696789   -0.284766
 H      8.906677    0.465183    1.448202
 F      3.159063    1.268839    0.361666
 F     -2.342987   -0.023753   -2.624757
