65

 Si     0.900684    1.863842   -0.402319
 O     -0.707954    1.930913   -0.356442
 C     -1.652259    2.594407    0.409942
 C     -2.247715    1.551915    1.313347
 H     -1.152143    3.347475    1.023695
 C     -1.359842    0.830897    2.102032
 C     -3.596659    1.253362    1.374323
 C     -1.807037   -0.186408    2.921220
 H     -0.312406    1.079589    2.070441
 C     -4.054441    0.230026    2.194179
 H     -4.307470    1.816693    0.786122
 C     -3.161876   -0.497198    2.963331
 H     -1.100498   -0.735527    3.536205
 H     -5.115951    0.003117    2.226297
 H     -3.519964   -1.296958    3.605538
 C     -2.599992    3.294074   -0.526403
 C     -1.859219    4.211625   -1.403401
 H     -3.353608    3.860070    0.033470
 H     -3.116180    2.566227   -1.148329
 C     -1.227378    4.946097   -2.111535
 H     -0.681471    5.609319   -2.739755
 Cl     2.157456    2.293339   -1.917442
 Cl     1.334904    3.455018    0.798415
 O      1.481904    0.784629    0.788369
 O      0.601764    0.345634   -1.312296
 C      1.701072   -1.405671    0.161346
 C      0.248690   -1.412305    0.079554
 C     -1.527926   -0.413371   -1.097294
 C      3.568618    0.016355    0.401139
 C      4.456108   -1.016768    0.097022
 C      2.523322   -2.467161   -0.107132
 C      3.903373   -2.260486   -0.137939
 C     -0.607575   -2.293554    0.677040
 C     -1.963971   -2.213020    0.373039
 C     -2.454699   -1.305520   -0.545588
 H      2.092861   -3.434256   -0.334356
 H      4.560267   -3.087158   -0.382911
 H     -0.225644   -3.034348    1.368172
 H     -2.651563   -2.897089    0.852015
 N      2.254702   -0.208026    0.422225
 N     -0.245185   -0.472585   -0.751906
 C     -3.862652   -1.287722   -0.984454
 C     -4.594012   -2.474328   -0.977984
 C     -4.481814   -0.118812   -1.408907
 C     -5.918773   -2.487860   -1.376235
 H     -4.125519   -3.403092   -0.678962
 C     -5.808035   -0.127711   -1.804355
 H     -3.940738    0.809814   -1.421520
 C     -6.532065   -1.311403   -1.787835
 H     -6.472537   -3.422287   -1.369815
 H     -6.276350    0.797289   -2.127918
 H     -7.572604   -1.319091   -2.100714
 C      5.899771   -0.725051    0.054798
 C      6.804715   -1.606441    0.638184
 C      6.361561    0.424632   -0.576329
 C      8.161678   -1.336176    0.596885
 H      6.449419   -2.496953    1.143053
 C      7.719265    0.690921   -0.622347
 H      5.667690    1.107830   -1.046713
 C      8.620642   -0.186689   -0.034577
 H      8.862878   -2.023352    1.061496
 H      8.073714    1.588263   -1.121121
 H      9.685782    0.025774   -0.068125
 F      3.923334    1.193141    0.685117
 F     -1.820449    0.442088   -1.975053
