65

 Si    -0.080197    1.035958    1.729203
 O      0.721956    1.914582    0.621843
 C      0.319364    2.562666   -0.550027
 C     -1.149361    2.848029   -0.438996
 H      0.871222    3.511263   -0.563346
 C     -2.107323    2.259956   -1.242221
 C     -1.550312    3.693676    0.587475
 C     -3.453062    2.508105   -1.024478
 H     -1.816591    1.599208   -2.043880
 C     -2.890000    3.944306    0.812278
 H     -0.799874    4.148776    1.220881
 C     -3.848247    3.346733    0.003743
 H     -4.195182    2.043094   -1.665578
 H     -3.187150    4.604840    1.621030
 H     -4.903016    3.542395    0.173669
 C      0.707648    1.762790   -1.765066
 C      2.163828    1.682920   -1.961797
 H      0.290029    2.232336   -2.662639
 H      0.298531    0.763310   -1.683211
 C      3.341794    1.645658   -2.192518
 H      4.382563    1.612001   -2.402145
 Cl    -1.966873    0.839060    2.406486
 Cl     0.635487    2.046291    3.337907
 O     -0.577223    0.157227    0.204374
 O      0.806399   -0.388847    1.995842
 C     -0.110551   -2.056497    0.207910
 C      1.269374   -1.604022    0.112368
 C      2.822771   -0.074122    1.014511
 C     -2.325995   -1.277713    0.122872
 C     -2.832081   -2.578880    0.181970
 C     -0.542004   -3.355814    0.228248
 C     -1.914398   -3.608130    0.243923
 C      2.183174   -2.001765   -0.823827
 C      3.452086   -1.418767   -0.820570
 C      3.802926   -0.446657    0.093117
 H      0.181969   -4.160868    0.249214
 H     -2.271439   -4.629707    0.299059
 H      1.907231   -2.742133   -1.564168
 H      4.175818   -1.721001   -1.568188
 N     -1.016192   -1.054364    0.207643
 N      1.628950   -0.663123    1.004198
 C      5.128548    0.191219    0.169377
 C      6.274484   -0.573376   -0.027817
 C      5.243851    1.552084    0.430993
 C      7.525161    0.016412    0.039994
 H      6.193713   -1.637225   -0.216231
 C      6.494114    2.142152    0.493850
 H      4.361147    2.159874    0.564353
 C      7.636591    1.376303    0.300664
 H      8.415250   -0.588380   -0.107540
 H      6.575163    3.206694    0.693217
 H      8.617525    1.840793    0.354212
 C     -4.293132   -2.765392    0.165498
 C     -4.861370   -3.769557   -0.611789
 C     -5.107528   -1.944839    0.938190
 C     -6.234438   -3.946519   -0.622482
 H     -4.233071   -4.404358   -1.225267
 C     -6.479663   -2.126348    0.932327
 H     -4.672764   -1.172755    1.557820
 C     -7.045452   -3.125102    0.150634
 H     -6.673006   -4.726837   -1.237755
 H     -7.109100   -1.486037    1.543386
 H     -8.123083   -3.264582    0.144021
 F     -3.053496   -0.258791   -0.053554
 F      2.994510    0.781795    1.916794
