71

 Si    -0.261585    1.725633    1.954430
 O      1.037154    2.141512    1.078953
 C      1.314629    2.703647   -0.162994
 C      1.659215    1.620627   -1.147908
 H      2.212150    3.313945   -0.008075
 C      0.711258    1.008515   -1.952255
 C      2.982562    1.216915   -1.248062
 C      1.074099    0.004159   -2.832096
 H     -0.315714    1.324580   -1.902914
 C      3.356476    0.210583   -2.125059
 H      3.734981    1.701792   -0.640134
 C      2.399451   -0.400826   -2.919902
 H      0.320141   -0.455197   -3.464479
 H      4.397917   -0.089248   -2.189880
 H      2.687079   -1.182706   -3.617319
 C      0.193901    3.609193   -0.604553
 C     -0.029961    4.677581    0.378861
 H     -0.721068    3.037247   -0.712195
 H      0.435592    4.059207   -1.573740
 C     -0.194798    5.537126    1.199873
 H     -0.353244    6.297888    1.926903
 Cl     0.437613    2.440188    3.721637
 Cl    -2.148062    2.403877    2.158351
 O     -0.731804    1.007150    0.342518
 O     -0.088147    0.087642    2.381897
 C     -1.301427   -1.178860    0.515233
 C      0.139569   -1.339772    0.616660
 C      2.015358   -0.423081    1.722644
 C     -2.868708    0.455879   -0.123709
 C     -3.911539   -0.474962   -0.084387
 C     -2.268426   -2.150172    0.580772
 C     -3.586363   -1.756139    0.295991
 C      0.940141   -2.086343   -0.209894
 C      2.325173   -1.975219   -0.021358
 C      2.896187   -1.153350    0.921837
 H     -4.378090   -2.491122    0.365405
 H      2.980225   -2.540483   -0.669234
 N     -1.647484    0.104081    0.252457
 N      0.707235   -0.550737    1.548520
 C      4.348436   -1.012621    1.126689
 C      5.178766   -2.119091    0.972734
 C      4.902536    0.218706    1.458733
 C      6.546363   -1.996252    1.147163
 H      4.756500   -3.087373    0.733561
 C      6.270610    0.343140    1.628509
 H      4.274472    1.088429    1.575808
 C      7.095676   -0.762784    1.473484
 H      7.184580   -2.867561    1.031652
 H      6.693025    1.310560    1.884100
 H      8.169092   -0.664210    1.610554
 C     -5.272954   -0.027449   -0.426354
 C     -6.085942   -0.815023   -1.234735
 C     -5.752563    1.179445    0.070189
 C     -7.367106   -0.395183   -1.550325
 H     -5.713184   -1.750990   -1.633614
 C     -7.035605    1.595834   -0.240275
 H     -5.132334    1.789331    0.712571
 C     -7.843768    0.811012   -1.052481
 H     -7.994595   -1.010589   -2.188540
 H     -7.405905    2.536842    0.155923
 H     -8.849595    1.140454   -1.298462
 F     -3.006995    1.646877   -0.538262
 F      2.372132    0.349321    2.646861
 C      0.390860   -2.970643   -1.291775
 H      0.323978   -4.003092   -0.939693
 H     -0.596899   -2.649309   -1.605932
 H      1.053266   -2.952051   -2.154617
 C     -1.961765   -3.569349    0.967052
 H     -2.628436   -3.876603    1.774871
 H     -2.127190   -4.243372    0.123495
 H     -0.937140   -3.677160    1.308320
