71

 Si     0.759238    2.181388   -0.202826
 O     -0.850039    2.217869   -0.132780
 C     -1.789753    2.783264    0.713829
 C     -2.327773    1.650484    1.541004
 H     -1.293395    3.495467    1.376947
 C     -1.398285    0.911172    2.261801
 C     -3.661660    1.289991    1.594840
 C     -1.789728   -0.182462    3.007454
 H     -0.362549    1.205861    2.236107
 C     -4.063338    0.188961    2.340010
 H     -4.404287    1.864680    1.059556
 C     -3.129359   -0.554194    3.041861
 H     -1.050880   -0.742912    3.571529
 H     -5.113679   -0.085395    2.367548
 H     -3.444271   -1.413679    3.627019
 C     -2.782895    3.532792   -0.132046
 C     -2.092658    4.546477   -0.941824
 H     -3.536534    4.023304    0.495045
 H     -3.295380    2.847678   -0.802940
 C     -1.500296    5.359136   -1.596693
 H     -0.990396    6.091667   -2.176248
 Cl     2.009163    2.804853   -1.658758
 Cl     1.177635    3.640867    1.162396
 O      1.362812    0.981817    0.852574
 O      0.476015    0.788831   -1.296638
 C      1.661743   -1.068036   -0.109926
 C      0.208191   -1.108628   -0.086057
 C     -1.628842   -0.036204   -1.104237
 C      3.470581    0.396154    0.308109
 C      4.383664   -0.513392   -0.230020
 C      2.499317   -2.013897   -0.648622
 C      3.868457   -1.703936   -0.688935
 C     -0.601354   -2.031721    0.519514
 C     -1.974852   -1.932083    0.257185
 C     -2.517621   -0.988228   -0.584211
 H      4.550076   -2.419415   -1.131203
 H     -2.637223   -2.649032    0.720344
 N      2.177966    0.093750    0.337727
 N     -0.339143   -0.109020   -0.814338
 C     -3.942875   -0.976275   -0.965775
 C     -4.649742   -2.177164   -0.997378
 C     -4.602558    0.199652   -1.300011
 C     -5.989165   -2.198701   -1.342901
 H     -4.150918   -3.110142   -0.769290
 C     -5.943418    0.182781   -1.642949
 H     -4.081718    1.139640   -1.283421
 C     -6.642543   -1.015612   -1.663644
 H     -6.523077   -3.144333   -1.366670
 H     -6.442607    1.113557   -1.896200
 H     -7.694538   -1.029329   -1.935174
 C      5.809715   -0.145815   -0.283903
 C      6.782240   -1.073647    0.074804
 C      6.186056    1.125181   -0.703329
 C      8.122343   -0.730438    0.021003
 H      6.493296   -2.061080    0.414826
 C      7.526662    1.465513   -0.762486
 H      5.437784    1.847849   -0.998940
 C      8.496090    0.540272   -0.398697
 H      8.877053   -1.456000    0.310321
 H      7.814212    2.458517   -1.095469
 H      9.547728    0.810332   -0.441801
 F      3.785967    1.518968    0.789937
 F     -1.971320    0.888233   -1.890541
 C      1.996821   -3.310944   -1.217416
 H      2.135413   -4.121423   -0.497469
 H      0.943713   -3.251140   -1.473643
 H      2.559249   -3.561551   -2.116850
 C     -0.069814   -3.109868    1.420068
 H     -0.662561   -3.144173    2.334672
 H     -0.143369   -4.086976    0.936820
 H      0.967215   -2.930117    1.687411
