71

 Si    -0.256337    1.338415    1.714290
 O      0.620380    2.185834    0.634817
 C      0.260202    2.846799   -0.543803
 C     -1.206688    3.152394   -0.469627
 H      0.823536    3.788345   -0.537580
 C     -2.156063    2.537333   -1.263073
 C     -1.617599    4.042019    0.514939
 C     -3.503018    2.802788   -1.077581
 H     -1.857039    1.840444   -2.029941
 C     -2.959014    4.310952    0.706960
 H     -0.873990    4.516372    1.142346
 C     -3.908304    3.686596   -0.091665
 H     -4.238340    2.315165   -1.709509
 H     -3.264330    5.006088    1.482983
 H     -4.964301    3.895199    0.053512
 C      0.667969    2.048928   -1.754586
 C      2.125908    1.999797   -1.951379
 H      0.242762    2.506329   -2.654695
 H      0.278136    1.042063   -1.667019
 C      3.304780    1.988735   -2.180667
 H      4.347256    1.977420   -2.384686
 Cl    -2.176859    1.159881    2.298352
 Cl     0.355905    2.410020    3.329405
 O     -0.669359    0.430273    0.187886
 O      0.619890   -0.069145    2.084207
 C     -0.193642   -1.772647    0.353861
 C      1.169624   -1.280784    0.225648
 C      2.655562    0.298176    1.167562
 C     -2.410620   -1.013500    0.126306
 C     -2.908018   -2.309830    0.303680
 C     -0.602016   -3.070009    0.530371
 C     -1.987326   -3.306625    0.523157
 C      2.074632   -1.607456   -0.750783
 C      3.321014   -0.959799   -0.709268
 C      3.645290   -0.013267    0.232110
 H     -2.346395   -4.314369    0.688651
 H      4.052171   -1.197198   -1.471009
 N     -1.110122   -0.782365    0.235624
 N      1.494334   -0.340628    1.136209
 C      4.942762    0.679362    0.313271
 C      6.121033   -0.030053    0.104562
 C      4.995627    2.040935    0.589531
 C      7.343700    0.616090    0.174914
 H      6.087317   -1.094271   -0.095900
 C      6.217583    2.687345    0.654895
 H      4.085214    2.604103    0.732881
 C      7.393284    1.976837    0.449567
 H      8.260267    0.054487    0.019061
 H      6.250517    3.752263    0.865592
 H      8.352077    2.485207    0.505181
 C     -4.366211   -2.516698    0.259399
 C     -4.899073   -3.599667   -0.431819
 C     -5.213016   -1.632401    0.918214
 C     -6.269596   -3.793589   -0.469186
 H     -4.244539   -4.284587   -0.957709
 C     -6.582626   -1.830143    0.886076
 H     -4.805506   -0.796371    1.469711
 C     -7.113242   -2.908925    0.190779
 H     -6.680307   -4.636725   -1.017117
 H     -7.237890   -1.138843    1.407909
 H     -8.188793   -3.061008    0.162792
 F     -3.138969   -0.022056   -0.169148
 F      2.795487    1.140329    2.088396
 C      0.364740   -4.199542    0.746769
 H      0.346778   -4.887722   -0.101525
 H      1.378572   -3.836827    0.882079
 H      0.076512   -4.759682    1.638065
 C      1.769375   -2.588446   -1.847939
 H      2.103298   -2.183059   -2.803828
 H      2.299330   -3.528755   -1.677996
 H      0.706326   -2.796333   -1.913483
