71

 Si    -0.648647   -2.165237   -0.469085
 O      0.957463   -2.178658   -0.396880
 C      2.109920   -2.497911    0.290740
 C      2.274249   -1.527257    1.426546
 H      2.926121   -2.345191   -0.420155
 C      1.176844   -1.185820    2.197006
 C      3.501701   -0.941056    1.697853
 C      1.284861   -0.239525    3.199357
 H      0.233891   -1.665563    2.009096
 C      3.620500    0.004547    2.704822
 H      4.372024   -1.213381    1.114307
 C      2.508785    0.366010    3.452197
 H      0.411008    0.019171    3.789558
 H      4.585416    0.462874    2.902381
 H      2.599768    1.108616    4.240101
 C      2.165630   -3.940319    0.729808
 C      2.010361   -4.835081   -0.427206
 H      1.383118   -4.147789    1.457003
 H      3.136162   -4.130395    1.204621
 C      1.879905   -5.537487   -1.391779
 H      1.767228   -6.178998   -2.233199
 Cl    -1.811636   -2.780603   -1.995387
 Cl    -1.065036   -3.683776    0.831092
 O     -1.321380   -1.054642    0.641857
 O     -0.420485   -0.689685   -1.466403
 C     -1.586247    1.080556   -0.115472
 C     -0.132202    1.097549   -0.092048
 C      1.675546    0.137080   -1.259973
 C     -3.409835   -0.408223    0.100124
 C     -4.308553    0.563375   -0.345283
 C     -2.409214    2.088618   -0.556730
 C     -3.778987    1.796049   -0.653357
 C      0.695978    1.945483    0.594013
 C      2.064000    1.867501    0.297417
 C      2.580801    1.017152   -0.652618
 H     -4.449019    2.562677   -1.021291
 H      2.743181    2.521620    0.825726
 N     -2.117409   -0.118489    0.191763
 N      0.394714    0.175846   -0.930006
 C      4.001031    1.012105   -1.050881
 C      4.715358    2.208003   -1.041172
 C      4.645863   -0.157630   -1.435548
 C      6.051059    2.232753   -1.402444
 H      4.223857    3.133187   -0.767854
 C      5.983011   -0.136373   -1.792920
 H      4.116861   -1.095560   -1.448377
 C      6.690296    1.057855   -1.776886
 H      6.592995    3.174083   -1.395624
 H      6.473390   -1.060230   -2.085769
 H      7.739102    1.074104   -2.060337
 C     -5.736012    0.216804   -0.463619
 C     -6.707508    1.107805   -0.018760
 C     -6.115245   -0.995650   -1.028619
 C     -8.049108    0.785648   -0.131962
 H     -6.416954    2.048215    0.434346
 C     -7.457269   -1.314390   -1.146890
 H     -5.368154   -1.688302   -1.391342
 C     -8.425576   -0.426460   -0.697293
 H     -8.802931    1.481528    0.224752
 H     -7.746769   -2.261109   -1.593596
 H     -9.478390   -0.679903   -0.787229
 F     -3.737566   -1.578872    0.440983
 F      1.997399   -0.696943   -2.149524
 C     -1.889659    3.437870   -0.966646
 H     -2.029061    4.160152   -0.158342
 H     -0.834187    3.398506   -1.216889
 H     -2.439969    3.796918   -1.836283
 C      0.188546    2.918173    1.619236
 H      0.763332    2.803797    2.538756
 H      0.311360    3.946386    1.271203
 H     -0.859629    2.747893    1.845015
