71

 Si     0.404500    1.770381   -0.010472
 O     -1.150292    1.392909    0.166863
 C     -2.310534    1.574896    0.881578
 C     -3.079534    2.753959    0.367639
 H     -2.906540    0.676691    0.694253
 C     -2.460037    3.694662   -0.434873
 C     -4.429539    2.896259    0.668093
 C     -3.173160    4.772607   -0.934923
 H     -1.414840    3.590505   -0.671770
 C     -5.146829    3.973179    0.173619
 H     -4.925577    2.161455    1.292788
 C     -4.518866    4.915870   -0.630393
 H     -2.671447    5.502217   -1.563678
 H     -6.200542    4.077037    0.416827
 H     -5.079630    5.761111   -1.019095
 C     -2.048940    1.627999    2.368535
 C     -1.281030    0.453101    2.810732
 H     -3.003980    1.649899    2.905410
 H     -1.490199    2.525853    2.623339
 C     -0.652302   -0.504871    3.168339
 H     -0.098879   -1.333452    3.532036
 Cl     1.341565    2.730471   -1.521045
 Cl     0.544602    3.284495    1.347882
 O      1.303041    0.726535    0.988312
 O      0.423833    0.387178   -1.146644
 C      1.911356   -1.259374    0.022006
 C      0.483787   -1.541411    0.052180
 C     -1.501989   -0.778097   -0.969028
 C      3.450583    0.504233    0.358422
 C      4.496182   -0.248215   -0.181545
 C      2.888619   -2.058448   -0.520598
 C      4.183926   -1.521678   -0.598647
 C     -0.171384   -2.578545    0.662956
 C     -1.550775   -2.680504    0.426419
 C     -2.239446   -1.826096   -0.405030
 H      4.968261   -2.121946   -1.041977
 H     -2.099101   -3.478589    0.909411
 N      2.231790   -0.016611    0.438635
 N     -0.215189   -0.653258   -0.687026
 C     -3.671984   -1.973135   -0.727631
 C     -4.217196   -3.249313   -0.849337
 C     -4.489733   -0.864414   -0.916719
 C     -5.557780   -3.414481   -1.150422
 H     -3.588977   -4.122861   -0.726972
 C     -5.832110   -1.028238   -1.212960
 H     -4.093835    0.133588   -0.827565
 C     -6.370352   -2.302252   -1.330473
 H     -5.968422   -4.415375   -1.247376
 H     -6.459090   -0.152597   -1.353390
 H     -7.423575   -2.429283   -1.565438
 C      5.837666    0.354246   -0.277523
 C      6.960139   -0.389141    0.073536
 C      5.986245    1.661060   -0.728277
 C      8.221977    0.172591   -0.019222
 H      6.848947   -1.403258    0.438599
 C      7.249053    2.219931   -0.826681
 H      5.121705    2.242142   -1.018584
 C      8.367836    1.478527   -0.470700
 H      9.093827   -0.409756    0.264470
 H      7.358318    3.239579   -1.184457
 H      9.357951    1.920000   -0.544887
 F      3.575542    1.681325    0.798468
 F     -1.984025    0.068808   -1.769747
 C      0.529096   -3.566653    1.552207
 H      0.621674   -4.534388    1.053372
 H      1.521298   -3.220632    1.826910
 H     -0.051307   -3.716504    2.463102
 C      2.606719   -3.432044   -1.061434
 H      3.165800   -3.586182   -1.984517
 H      2.922382   -4.194758   -0.345238
 H      1.550749   -3.568940   -1.270645
