71

 Si    -0.353792    2.046134    1.542543
 O      0.822544    2.370855    0.477641
 C      0.737653    2.627524   -0.888282
 C      1.359247    1.480505   -1.624586
 H     -0.308755    2.692416   -1.177977
 C      2.732640    1.301176   -1.626956
 C      0.556487    0.563243   -2.285335
 C      3.304034    0.222873   -2.282333
 H      3.363544    2.016099   -1.119727
 C      1.119206   -0.516418   -2.946251
 H     -0.514832    0.701582   -2.290386
 C      2.496219   -0.690490   -2.944631
 H      4.382021    0.098111   -2.277438
 H      0.480666   -1.218554   -3.474299
 H      2.941231   -1.531836   -3.468685
 C      1.389476    3.964708   -1.147652
 C      0.628646    5.039261   -0.489833
 H      1.439524    4.167513   -2.224396
 H      2.406070    3.956426   -0.753503
 C     -0.015795    5.890612    0.058593
 H     -0.576972    6.655126    0.540988
 Cl     0.425961    3.084082    3.105789
 Cl    -2.220967    2.785897    1.664589
 O     -0.921096    0.963396    0.157648
 O     -0.038157    0.530136    2.258769
 C     -1.299638   -1.168717    0.816712
 C      0.152626   -1.213961    0.797269
 C      2.038773    0.006993    1.525993
 C     -3.050444    0.202362    0.050606
 C     -4.001947   -0.767482    0.386449
 C     -2.169178   -2.167527    1.173993
 C     -3.537181   -1.923286    0.967885
 C      0.936885   -2.058668    0.053642
 C      2.321101   -1.840717    0.094716
 C      2.906130   -0.826339    0.816382
 H     -4.254171   -2.677631    1.265554
 H      2.961090   -2.486955   -0.489206
 N     -1.772411    0.014257    0.352071
 N      0.732634   -0.222375    1.499664
 C      4.359959   -0.594850    0.883615
 C      5.230524   -1.681106    0.858515
 C      4.877565    0.693261    0.959875
 C      6.599371   -1.482656    0.905728
 H      4.840449   -2.690645    0.820414
 C      6.246575    0.893009    1.002334
 H      4.220098    1.547990    0.974127
 C      7.110955   -0.193058    0.975157
 H      7.268387   -2.338269    0.892254
 H      6.638767    1.904327    1.057805
 H      8.185339   -0.034728    1.011927
 C     -5.422742   -0.487458    0.113872
 C     -6.236019   -1.472814   -0.436110
 C     -5.957125    0.759419    0.418453
 C     -7.572219   -1.210635   -0.687138
 H     -5.822262   -2.442589   -0.685889
 C     -7.294506    1.019158    0.173455
 H     -5.335635    1.525531    0.861342
 C     -8.103347    0.036183   -0.381673
 H     -8.200322   -1.981448   -1.124294
 H     -7.706542    1.993520    0.419290
 H     -9.152206    0.242291   -0.576932
 F     -3.335961    1.269623   -0.571173
 F      2.409090    0.976466    2.234735
 C      0.368657   -3.159546   -0.795017
 H      0.439178   -4.117075   -0.272986
 H     -0.672580   -2.976783   -1.040314
 H      0.935509   -3.239081   -1.720884
 C     -1.707642   -3.459111    1.787139
 H     -2.245445   -3.628559    2.721905
 H     -1.920818   -4.299184    1.122324
 H     -0.644126   -3.441516    2.002125
