71

 Si    -0.471759   -1.730147   -1.610177
 O      0.744560   -2.111564   -0.614638
 C      1.089873   -2.095343    0.715031
 C      2.572178   -1.874396    0.814067
 H      0.560926   -1.300797    1.239731
 C      3.385080   -2.306379   -0.218976
 C      3.143588   -1.323373    1.952078
 C      4.760800   -2.185508   -0.126140
 H      2.929713   -2.741415   -1.095018
 C      4.521558   -1.221307    2.059117
 H      2.510738   -0.992681    2.769043
 C      5.332671   -1.653400    1.020386
 H      5.387522   -2.525564   -0.944632
 H      4.963624   -0.804713    2.959330
 H      6.411704   -1.575039    1.104484
 C      0.720328   -3.422216    1.338952
 C     -0.722364   -3.693913    1.266305
 H      1.032210   -3.450437    2.389211
 H      1.251847   -4.214098    0.808088
 C     -1.896602   -3.934115    1.209931
 H     -2.933031   -4.160456    1.159624
 Cl     0.449244   -2.596558   -3.212261
 Cl    -2.328772   -2.359930   -2.098412
 O     -1.136932   -0.953251   -0.112582
 O     -0.210655   -0.127382   -2.120291
 C     -1.653935    1.223179   -0.494555
 C     -0.210820    1.374944   -0.405636
 C      1.798657    0.456636   -1.248218
 C     -3.325303   -0.364076   -0.021784
 C     -4.332762    0.574528   -0.275580
 C     -2.580830    2.198959   -0.754748
 C     -3.933986    1.831787   -0.659989
 C      0.475210    2.157506    0.487617
 C      1.875424    2.099996    0.436066
 C      2.572967    1.273311   -0.416158
 H     -4.693689    2.568244   -0.888672
 H      2.437790    2.740634    1.101489
 N     -2.053626   -0.042106   -0.217252
 N      0.475886    0.564844   -1.234661
 C      4.042998    1.234984   -0.492250
 C      4.802570    1.550888    0.630369
 C      4.690359    0.929015   -1.684137
 C      6.183104    1.553670    0.567044
 H      4.318523    1.777109    1.570225
 C      6.072596    0.927337   -1.748369
 H      4.127898    0.708230   -2.577505
 C      6.823166    1.239067   -0.624237
 H      6.761797    1.796148    1.453314
 H      6.563651    0.688498   -2.687140
 H      7.908508    1.240268   -0.676607
 C     -5.737783    0.153197   -0.136187
 C     -6.655523    0.977275    0.506268
 C     -6.151380   -1.065598   -0.661862
 C     -7.976743    0.581452    0.629400
 H     -6.335593    1.922775    0.927956
 C     -7.473626   -1.457853   -0.544732
 H     -5.446498   -1.703254   -1.177572
 C     -8.387498   -0.636692    0.102863
 H     -8.687504    1.225285    1.139386
 H     -7.791626   -2.408191   -0.963458
 H     -9.424633   -0.946858    0.197022
 F     -3.558549   -1.526250    0.418940
 F      2.263960   -0.386460   -2.053092
 C     -0.210412    3.043489    1.489996
 H     -0.155893    4.088450    1.175603
 H     -1.253840    2.772508    1.614395
 H      0.287024    2.958560    2.456726
 C     -2.193774    3.596100   -1.149290
 H     -2.727540    3.878078   -2.058522
 H     -2.468684    4.306920   -0.366586
 H     -1.128089    3.677450   -1.338132
