65

 Si     0.552271    1.291945    1.498313
 O     -0.322265    2.667006    1.304729
 C     -0.465032    3.527605    0.225358
 C     -0.915473    2.697542   -0.944618
 H      0.505546    3.970070   -0.013866
 C     -2.222098    2.259676   -1.046362
 C      0.035584    2.180088   -1.808357
 C     -2.567193    1.272476   -1.950224
 H     -2.976512    2.671630   -0.393864
 C     -0.300411    1.195774   -2.719016
 H      1.056933    2.531220   -1.747692
 C     -1.601598    0.723442   -2.779308
 H     -3.597039    0.935078   -2.013949
 H      0.456385    0.801214   -3.389834
 H     -1.871945   -0.048996   -3.493785
 C     -1.411162    4.626246    0.633323
 C     -0.845802    5.422030    1.734551
 H     -1.622550    5.290015   -0.214387
 H     -2.352434    4.187942    0.964727
 C     -0.368008    6.064232    2.629257
 H      0.041720    6.648911    3.418060
 Cl     0.310093    1.152026    3.480923
 Cl     2.301468    1.980866    0.763869
 O     -0.499865    0.624820    0.332066
 O      1.092271   -0.421088    1.546487
 C     -0.385993   -1.522946   -0.314698
 C      1.030125   -1.301790   -0.561896
 C      3.078603   -0.885984    0.541391
 C     -2.283088   -0.666574    0.806677
 C     -2.980786   -1.848655    0.574587
 C     -1.030960   -2.712440   -0.555426
 C     -2.340209   -2.856804   -0.124289
 C      1.687416   -1.653472   -1.712081
 C      3.070908   -1.550608   -1.746694
 C      3.784732   -1.186746   -0.622489
 H     -0.501728   -3.519473   -1.045781
 H     -2.867533   -3.785122   -0.309893
 H      1.118477   -1.988583   -2.569610
 H      3.605233   -1.779480   -2.660971
 C      5.260627   -1.099639   -0.649611
 Cl     3.798702   -0.625325    2.022414
 N     -1.047372   -0.539588    0.304202
 N      1.737761   -0.863446    0.498462
 Cl    -2.839961    0.599103    1.729818
 C     -4.362297   -2.024768    1.073018
 C     -4.663725   -3.107047    1.890309
 C     -5.362137   -1.132471    0.703989
 C     -6.956448   -2.397337    1.980185
 C     -6.657457   -1.321424    1.153448
 C     -5.958592   -3.289069    2.349407
 H     -3.884393   -3.800228    2.184678
 H     -6.187646   -4.130707    2.996707
 H     -7.972754   -2.541702    2.336486
 H     -7.437178   -0.625943    0.856796
 H     -5.133057   -0.297020    0.055120
 C      6.014992   -2.197667   -1.041891
 C      5.889082    0.095039   -0.317697
 C      8.024462   -0.913453   -0.755955
 C      7.268487    0.188561   -0.375016
 C      7.397292   -2.106595   -1.087968
 H      5.526212   -3.130827   -1.296532
 H      7.985048   -2.970350   -1.385069
 H      9.107884   -0.840500   -0.795313
 H      7.755649    1.125392   -0.120765
 H      5.298739    0.953919   -0.024448
