65

 Si    -0.447906    1.073262    2.289538
 O      0.418850    2.214634    1.538113
 C      0.286493    2.868436    0.320642
 C      0.844347    1.999803   -0.766123
 H     -0.768480    3.045260    0.115040
 C      2.139500    1.526119   -0.663548
 C      0.061106    1.608388   -1.839024
 C      2.655394    0.676754   -1.627581
 H      2.745122    1.835298    0.175697
 C      0.560619    0.739521   -2.794446
 H     -0.952491    1.975064   -1.921737
 C      1.862779    0.272217   -2.691718
 H      3.679634    0.331685   -1.551619
 H     -0.064795    0.435005   -3.629181
 H      2.263875   -0.396582   -3.447945
 C      0.991799    4.198819    0.440533
 C      0.333743    5.051624    1.443362
 H      0.995911    4.719679   -0.525118
 H      2.027171    4.027393    0.738503
 C     -0.225895    5.728127    2.262173
 H     -0.709833    6.342379    2.983866
 Cl     0.295040    1.467780    4.144820
 Cl    -2.398245    1.091975    2.802715
 O     -0.862791    0.629548    0.580356
 O      0.159070   -0.528444    2.291441
 C     -1.192288   -1.561422    0.253155
 C      0.258349   -1.655978    0.321623
 C      2.225074   -0.946959    1.429266
 C     -2.942463   -0.013900   -0.076208
 C     -3.840898   -1.057199   -0.297276
 C     -2.038833   -2.619134    0.035599
 C     -3.381038   -2.355810   -0.198893
 C      0.999622   -2.339416   -0.607685
 C      2.380956   -2.328281   -0.502014
 C      3.014628   -1.631042    0.506739
 H     -1.648429   -3.628911    0.047540
 H     -4.072476   -3.175110   -0.355399
 H      0.498084   -2.854118   -1.416594
 H      2.978495   -2.854282   -1.236588
 C      4.490849   -1.640131    0.615299
 Cl     2.835720   -0.104732    2.722119
 N     -1.681881   -0.309068    0.268081
 N      0.888461   -0.994853    1.305022
 Cl    -3.338470    1.598500   -0.249478
 C     -5.261573   -0.778692   -0.608574
 C     -6.244936   -1.213807    0.270362
 C     -5.614699   -0.115103   -1.776938
 C     -7.933579   -0.309474   -1.178512
 C     -6.949643    0.115415   -2.062453
 C     -7.580537   -0.973288   -0.011482
 H     -5.969147   -1.727752    1.183904
 H     -8.346378   -1.306803    0.682805
 H     -8.980533   -0.123595   -1.401937
 H     -7.223091    0.628998   -2.979626
 H     -4.850093    0.212880   -2.469742
 C      5.155583   -2.860488    0.649810
 C      5.217394   -0.456191    0.652740
 C      7.261748   -1.713405    0.768727
 C      6.599139   -0.493288    0.724835
 C      6.538182   -2.897614    0.732839
 H      4.593264   -3.786563    0.628793
 H      7.050366   -3.854781    0.769110
 H      8.346220   -1.740553    0.830515
 H      7.161022    0.435967    0.747189
 H      4.707812    0.496238    0.614567
