65

 Si     0.472193    0.943989    1.765230
 O     -0.459086    2.291794    1.862405
 C     -0.624319    3.364606    0.997509
 C     -1.022563    2.798657   -0.337335
 H      0.329711    3.886089    0.884729
 C     -2.307487    2.343120   -0.563065
 C     -0.038849    2.525855   -1.273357
 C     -2.597259    1.569062   -1.671001
 H     -3.087388    2.569121    0.147754
 C     -0.319778    1.756863   -2.387336
 H      0.964894    2.896551   -1.114297
 C     -1.597934    1.257793   -2.579671
 H     -3.610331    1.213348   -1.831003
 H      0.461953    1.552782   -3.112351
 H     -1.824902    0.653861   -3.453727
 C     -1.622302    4.307601    1.616456
 C     -1.106610    4.861835    2.878509
 H     -1.850804    5.133955    0.931760
 H     -2.548159    3.770420    1.821889
 C     -0.668231    5.308255    3.903092
 H     -0.294482    5.719687    4.810276
 Cl     0.210821    0.354540    3.660723
 Cl     2.199301    1.850342    1.245902
 O     -0.535989    0.512566    0.458117
 O      1.087598   -0.712919    1.442041
 C     -0.311907   -1.427114   -0.653537
 C      1.095977   -1.097789   -0.810841
 C      3.107480   -0.858038    0.406933
 C     -2.262810   -0.926920    0.584727
 C     -2.902314   -2.053112    0.074122
 C     -0.897795   -2.557168   -1.171891
 C     -2.205294   -2.849629   -0.817419
 C      1.784710   -1.152357   -1.994542
 C      3.162489   -0.987230   -1.971644
 C      3.843092   -0.858954   -0.777482
 H     -0.325049   -3.209217   -1.818924
 H     -2.686813   -3.731917   -1.222406
 H      1.243946   -1.307929   -2.919033
 H      3.719587   -0.981077   -2.900827
 C      5.313746   -0.707703   -0.748759
 Cl     3.793610   -0.909376    1.925615
 N     -1.027150   -0.637701    0.154276
 N      1.767812   -0.881083    0.337633
 Cl    -2.891923    0.073857    1.754027
 C     -4.282364   -2.393547    0.483412
 C     -4.548161   -3.644991    1.025102
 C     -5.315398   -1.481849    0.299857
 C     -6.871870   -3.067472    1.212850
 C     -6.608143   -1.820284    0.660180
 C     -5.840949   -3.978957    1.396237
 H     -3.743377   -4.355259    1.174605
 H     -6.042480   -4.954669    1.828898
 H     -7.886413   -3.330113    1.499887
 H     -7.413443   -1.107426    0.508561
 H     -5.113652   -0.511908   -0.135979
 C      6.122459   -1.655630   -1.362010
 C      5.882820    0.404907   -0.139975
 C      8.067538   -0.388715   -0.745140
 C      7.257224    0.565582   -0.142040
 C      7.499691   -1.499723   -1.353744
 H      5.680068   -2.525529   -1.833288
 H      8.129961   -2.248310   -1.825099
 H      9.146964   -0.264216   -0.741460
 H      7.697827    1.439177    0.329473
 H      5.250309    1.149611    0.326397
