65

 Si     0.798229    2.025229   -0.680198
 O     -0.802686    1.990973   -0.470213
 C     -1.674104    2.641261    0.393240
 C     -2.068311    1.622172    1.423761
 H     -1.141399    3.451196    0.894260
 C     -1.050184    1.116178    2.221640
 C     -3.355177    1.143515    1.591257
 C     -1.309321    0.141751    3.165918
 H     -0.050495    1.500700    2.099385
 C     -3.623835    0.161905    2.535860
 H     -4.165766    1.536176    0.994280
 C     -2.602417   -0.343732    3.323344
 H     -0.503504   -0.235410    3.788576
 H     -4.639592   -0.204014    2.655060
 H     -2.812924   -1.108773    4.065504
 C     -2.786161    3.243080   -0.422115
 C     -2.239679    4.177536   -1.416733
 H     -3.492995    3.776333    0.224260
 H     -3.329097    2.461115   -0.947645
 C     -1.765234    4.926929   -2.225114
 H     -1.357949    5.602741   -2.939212
 Cl     1.802925    2.480419   -2.361492
 Cl     1.240591    3.716946    0.379547
 O      1.520205    1.076423    0.543581
 O      0.557001    0.422506   -1.457360
 C      1.629893   -1.160273    0.204577
 C      0.176867   -1.136581    0.119624
 C     -1.569442   -0.374982   -1.279029
 C      3.585159    0.176647    0.228079
 C      4.382654   -0.959343    0.091935
 C      2.378040   -2.302680    0.077411
 C      3.761007   -2.190319    0.023095
 C     -0.682282   -1.939387    0.820677
 C     -2.021592   -1.929235    0.469297
 C     -2.482209   -1.184284   -0.599659
 H      1.881156   -3.260565   -0.008006
 H      4.367854   -3.081814   -0.084370
 H     -0.306631   -2.562866    1.621632
 H     -2.720926   -2.543721    1.020208
 C     -3.892032   -1.311119   -1.031805
 Cl    -1.918310    0.465401   -2.671020
 N      2.254483    0.023462    0.291848
 N     -0.302778   -0.346613   -0.854342
 Cl     4.172316    1.731108    0.296916
 C      5.856773   -0.846283    0.009741
 C      6.514448   -1.328364   -1.114846
 C      6.582489   -0.289049    1.055708
 C      8.619717   -0.684462   -0.155019
 C      7.962240   -0.212360    0.974168
 C      7.895019   -1.241258   -1.200056
 H      5.948800   -1.757191   -1.933883
 H      8.404668   -1.609893   -2.085574
 H      9.702398   -0.618935   -0.219423
 H      8.526761    0.218171    1.796171
 H      6.073754    0.075510    1.939224
 C     -4.441788   -2.583717   -1.153102
 C     -4.682482   -0.199970   -1.293496
 C     -6.550237   -1.626685   -1.788697
 C     -6.006666   -0.354857   -1.664729
 C     -5.763615   -2.742188   -1.535361
 H     -3.831257   -3.458967   -0.967692
 H     -6.178889   -3.740799   -1.636206
 H     -7.588422   -1.748303   -2.085334
 H     -6.615863    0.522910   -1.859905
 H     -4.269196    0.790698   -1.198142
