65

 Si     0.532423    1.172639    0.990292
 O     -0.773445    2.334288    0.428654
 C     -1.109880    2.755890   -0.667137
 C     -2.304181    3.552192   -0.879633
 H     -0.500823    2.523252   -1.544102
 C     -3.116791    3.876845    0.207289
 C     -2.633291    3.985201   -2.163426
 C     -4.254903    4.628903    0.011166
 H     -2.835528    3.525063    1.191377
 C     -3.777152    4.740385   -2.359303
 H     -1.992466    3.730119   -3.001801
 C     -4.582694    5.059630   -1.273912
 H     -4.891995    4.886068    0.851869
 H     -4.041700    5.081981   -3.355503
 H     -5.480747    5.653414   -1.428100
 C     -3.191522    1.172470    2.591409
 C     -1.990486    0.738954    2.313230
 H     -4.057292    0.849210    2.022380
 H     -3.344683    1.855182    3.423283
 C     -0.788569    0.312382    2.034925
 H     -0.483083   -0.573550    2.584356
 Cl     1.893703    2.011528   -0.403191
 Cl     1.116097    2.447803    2.518963
 O      1.590383   -0.176141    1.449639
 O      0.103165    0.156249   -0.462007
 C      1.999110   -1.578192   -0.258091
 C      0.612427   -1.998018   -0.078068
 C     -1.635431   -1.316688   -0.260152
 C      3.724724   -0.229478    0.632158
 C      4.612727   -0.717797   -0.327660
 C      2.838668   -2.090004   -1.210218
 C      4.149337   -1.629367   -1.251793
 C      0.233365   -3.286128    0.200958
 C     -1.119872   -3.573533    0.307504
 C     -2.068428   -2.598886    0.071400
 H      2.472073   -2.831486   -1.908532
 H      4.829492   -2.010066   -2.004504
 H      0.991063   -4.045525    0.348322
 H     -1.441822   -4.575361    0.565675
 C     -3.514840   -2.896585    0.173209
 Cl    -2.673875   -0.114679   -0.779882
 N      2.452775   -0.646859    0.596967
 N     -0.323587   -1.046894   -0.248780
 Cl     4.150336    0.833939    1.836618
 C      6.017069   -0.248023   -0.364114
 C      6.475382    0.430342   -1.485639
 C      6.876821   -0.500040    0.697361
 C      8.649233    0.614918   -0.481204
 C      8.192103   -0.071847    0.636484
 C      7.789774    0.866895   -1.541864
 H      5.801817    0.632915   -2.310073
 H      8.142202    1.404645   -2.417235
 H      9.680580    0.953799   -0.525505
 H      8.863100   -0.275267    1.465983
 H      6.523100   -1.036686    1.568689
 C     -4.086780   -3.866523   -0.638404
 C     -4.290273   -2.223550    1.109720
 C     -6.213763   -3.480495    0.409946
 C     -5.637272   -2.517814    1.229935
 C     -5.438523   -4.153520   -0.524254
 H     -3.481883   -4.389772   -1.369862
 H     -5.885773   -4.906717   -1.166567
 H     -7.272155   -3.708423    0.502158
 H     -6.239302   -1.995428    1.967770
 H     -3.838239   -1.477759    1.750827
