71

 Si    -0.823361   -2.199229   -0.741224
 O      0.790648   -2.225584   -0.683693
 C      1.717046   -2.960369    0.043872
 C      2.219982   -2.040402    1.118668
 H      1.209863   -3.800809    0.520204
 C      1.281300   -1.583365    2.035025
 C      3.528754   -1.606505    1.222636
 C      1.640885   -0.701784    3.034852
 H      0.264952   -1.935138    1.961688
 C      3.897032   -0.713238    2.220179
 H      4.279659   -1.966617    0.534268
 C      2.954791   -0.256275    3.126497
 H      0.897299   -0.367610    3.751624
 H      4.928421   -0.379256    2.287116
 H      3.244556    0.436463    3.911671
 C      2.741016   -3.511165   -0.910705
 C      2.088086   -4.344374   -1.930762
 H      3.260796   -2.698527   -1.412182
 H      3.483560   -4.112756   -0.373599
 C      1.528116   -5.012163   -2.755823
 H      1.045725   -5.616260   -3.487155
 Cl    -2.032754   -2.548486   -2.312209
 Cl    -1.208110   -3.928859    0.283181
 O     -1.395892   -1.274184    0.575792
 O     -0.593909   -0.589792   -1.507701
 C     -1.569390    0.944523    0.189789
 C     -0.117277    0.892187    0.107522
 C      1.552791    0.166520   -1.404228
 C     -3.497610   -0.425298    0.381965
 C     -4.315781    0.690468    0.192399
 C     -2.325266    2.071203   -0.036981
 C     -3.713210    1.907428   -0.022739
 C      0.781607    1.596218    0.867102
 C      2.110137    1.557423    0.442940
 C      2.511070    0.906549   -0.701746
 H     -4.342923    2.771308   -0.192793
 H      2.851781    2.095991    1.015238
 C      3.905690    1.046185   -1.178462
 Cl     1.822983   -0.590720   -2.860055
 N     -2.175282   -0.242442    0.366173
 N      0.311485    0.145701   -0.927668
 Cl    -4.060830   -1.974036    0.598128
 C     -5.790681    0.558513    0.191031
 C     -6.508106    0.934274   -0.937316
 C     -6.457840    0.086946    1.315116
 C     -8.556198    0.356762    0.176446
 C     -7.838786   -0.009676    1.308350
 C     -7.889973    0.827469   -0.946856
 H     -5.987949    1.294537   -1.817203
 H     -8.446472    1.113154   -1.834803
 H     -9.639695    0.275619    0.170996
 H     -8.357083   -0.373301    2.190879
 H     -5.901998   -0.196292    2.200069
 C      4.480516    2.313546   -1.195234
 C      4.659247   -0.046758   -1.585050
 C      6.539020    1.386422   -2.012547
 C      5.970740    0.119613   -1.994679
 C      5.789251    2.485067   -1.614991
 H      3.898885    3.177213   -0.897402
 H      6.223153    3.480696   -1.631916
 H      7.567020    1.517382   -2.339082
 H      6.550481   -0.745479   -2.303227
 H      4.227867   -1.033941   -1.573246
 C     -1.718244    3.416737   -0.313248
 H     -1.697893    4.018941    0.598149
 H     -0.705794    3.327628   -0.693521
 H     -2.321234    3.946092   -1.050792
 C      0.376380    2.384367    2.077828
 H      1.062128    2.168493    2.896120
 H      0.426890    3.456114    1.872058
 H     -0.632072    2.136937    2.395270
