71

 Si     0.283716    1.244099    1.841178
 O     -0.659920    2.586026    1.812270
 C     -0.761155    3.636558    0.914433
 C     -1.021692    3.041531   -0.440859
 H      0.189005    4.176412    0.881612
 C     -2.273361    2.566957   -0.784370
 C      0.049040    2.780991   -1.279347
 C     -2.449051    1.792386   -1.915560
 H     -3.120534    2.786853   -0.153535
 C     -0.117416    2.014312   -2.417767
 H      1.028228    3.166498   -1.028875
 C     -1.365896    1.500995   -2.730499
 H     -3.438842    1.425301   -2.170051
 H      0.730825    1.826442   -3.067662
 H     -1.505418    0.903488   -3.626793
 C     -1.830883    4.570346    1.417569
 C     -1.453188    5.148862    2.716932
 H     -2.004451    5.383704    0.702066
 H     -2.763573    4.019715    1.538305
 C     -1.129998    5.616245    3.774440
 H     -0.857453    6.045051    4.709152
 Cl    -0.153832    0.740863    3.733252
 Cl     2.039380    2.148092    1.424442
 O     -0.584634    0.735401    0.456715
 O      0.951928   -0.415821    1.694586
 C     -0.330621   -1.360750   -0.306510
 C      1.052470   -0.960882   -0.514870
 C      3.015044   -0.570935    0.749482
 C     -2.329972   -0.666119    0.757571
 C     -2.913122   -1.905808    0.494588
 C     -0.832378   -2.622669   -0.541622
 C     -2.150909   -2.855447   -0.147813
 C      1.749408   -1.003109   -1.695913
 C      3.126866   -0.770484   -1.618319
 C      3.777825   -0.590388   -0.421966
 H     -2.587377   -3.828960   -0.329735
 H      3.707868   -0.756646   -2.531336
 C      5.241150   -0.381112   -0.369488
 Cl     3.661646   -0.526576    2.285521
 N     -1.091252   -0.445129    0.313085
 N      1.688413   -0.648907    0.637040
 Cl    -3.039804    0.530708    1.663782
 C     -4.297282   -2.198946    0.926800
 C     -4.543999   -3.293567    1.745553
 C     -5.351084   -1.401957    0.495407
 C     -6.891674   -2.787776    1.710664
 C     -6.646094   -1.698904    0.883335
 C     -5.839689   -3.583859    2.142718
 H     -3.722779   -3.911122    2.089927
 H     -6.026732   -4.435022    2.791043
 H     -7.908186   -3.016952    2.018548
 H     -7.467400   -1.077580    0.538282
 H     -5.163101   -0.555699   -0.152909
 C      6.099046   -1.321091   -0.924851
 C      5.753445    0.777217    0.203174
 C      7.980187    0.045042   -0.321153
 C      7.120476    0.991151    0.223694
 C      7.468975   -1.111290   -0.894314
 H      5.700704   -2.226082   -1.368455
 H      8.137830   -1.853211   -1.320895
 H      9.053698    0.211617   -0.299878
 H      7.516593    1.900027    0.667151
 H      5.082018    1.514934    0.624025
 C     -0.017934   -3.724189   -1.157627
 H     -0.215916   -3.791168   -2.229686
 H      1.045724   -3.565681   -1.010566
 H     -0.291860   -4.677667   -0.706714
 C      1.090730   -1.272838   -3.017282
 H      1.433854   -0.542133   -3.749783
 H      1.363805   -2.264262   -3.385741
 H      0.010563   -1.207089   -2.945597
