71

 Si    -0.237038    1.727171    2.101489
 O      0.993765    2.320781    1.234493
 C      1.242733    2.955485    0.025358
 C      1.588397    1.931109   -1.020558
 H      2.133475    3.570370    0.202522
 C      0.652396    1.386889   -1.884573
 C      2.905935    1.507796   -1.108534
 C      1.023495    0.433705   -2.816660
 H     -0.372041    1.713347   -1.840111
 C      3.288324    0.552970   -2.037348
 H      3.645896    1.945122   -0.451428
 C      2.343723    0.011986   -2.895771
 H      0.280020    0.028615   -3.496720
 H      4.325640    0.238566   -2.093473
 H      2.637408   -0.728062   -3.634853
 C      0.101274    3.864575   -0.346284
 C     -0.175453    4.827223    0.728241
 H      0.337901    4.407946   -1.267740
 H     -0.792295    3.275109   -0.514924
 C     -0.395673    5.591690    1.626659
 H     -0.600981    6.270716    2.419867
 Cl     0.454846    2.387752    3.900297
 Cl    -2.167793    2.192676    2.459569
 O     -0.722173    1.131351    0.441442
 O      0.078237    0.080683    2.403806
 C     -1.243813   -1.038614    0.533086
 C      0.202754   -1.186722    0.544468
 C      2.169341   -0.505712    1.677586
 C     -2.869758    0.556267   -0.083075
 C     -3.857320   -0.433867   -0.036511
 C     -2.169909   -2.046255    0.632102
 C     -3.499521   -1.696293    0.371131
 C      0.915821   -1.892919   -0.393003
 C      2.302802   -1.889354   -0.250786
 C      2.946679   -1.222811    0.764953
 H     -4.266706   -2.456639    0.441132
 H      2.901441   -2.428645   -0.971256
 C      4.418862   -1.305571    0.895448
 Cl     2.783332    0.275554    3.002873
 N     -1.635178    0.231123    0.295969
 N      0.844775   -0.509754    1.509979
 Cl    -3.146460    2.114290   -0.613295
 C     -5.263876   -0.112960   -0.371824
 C     -6.241958   -0.248242    0.604635
 C     -5.611507    0.293334   -1.654132
 C     -7.912331    0.441229   -0.977584
 C     -6.934674    0.566250   -1.956687
 C     -7.565095    0.034739    0.303522
 H     -5.970196   -0.559855    1.606457
 H     -8.325683   -0.063488    1.072701
 H     -8.949602    0.660365   -1.215465
 H     -7.203996    0.877967   -2.961699
 H     -4.852413    0.386711   -2.420432
 C      5.026179   -2.556130    0.862892
 C      5.201864   -0.164717    1.018374
 C      7.182951   -1.523213    1.077898
 C      6.579140   -0.272686    1.104239
 C      6.403784   -2.666108    0.959790
 H      4.421675   -3.451317    0.779693
 H      6.868598   -3.647695    0.944187
 H      8.263822   -1.606744    1.151034
 H      7.183413    0.625446    1.193133
 H      4.739905    0.811302    1.036505
 C     -1.799073   -3.451962    1.005683
 H     -1.997738   -4.135583    0.177445
 H     -0.753457   -3.529016    1.285491
 H     -2.407566   -3.770494    1.854306
 C      0.257529   -2.634979   -1.518938
 H      0.916425   -2.651166   -2.384167
 H      0.058064   -3.668588   -1.226677
 H     -0.681347   -2.172050   -1.805945
