71

 Si    -0.390621    1.156119    1.861586
 O      0.268504    2.228449    0.853117
 C     -0.013630    2.725686   -0.404173
 C     -0.233231    4.208345   -0.307835
 H     -0.911729    2.256218   -0.803605
 C      0.413342    4.929263    0.682261
 C     -1.062600    4.865733   -1.206789
 C      0.229279    6.298763    0.784465
 H      1.045707    4.407355    1.385426
 C     -1.245792    6.237096   -1.111936
 H     -1.568930    4.305874   -1.986056
 C     -0.600438    6.955953   -0.115040
 H      0.734543    6.853990    1.569352
 H     -1.896679    6.745370   -1.817778
 H     -0.745423    8.029858   -0.037951
 C      1.154506    2.406657   -1.312941
 C      1.155361    1.014809   -1.792152
 H      1.134296    3.046956   -2.201803
 H      2.075333    2.618598   -0.769572
 C      1.120291   -0.091259   -2.258404
 H      1.103988   -1.050762   -2.709058
 Cl    -2.323419    0.970301    2.409090
 Cl     0.232094    2.099501    3.565856
 O     -0.685582    0.243053    0.318442
 O      0.562777   -0.212978    2.225114
 C     -0.654924   -1.964138    0.772900
 C      0.783304   -1.795773    0.626447
 C      2.548229   -0.289743    1.107459
 C     -2.631299   -0.894129    0.036062
 C     -3.364122   -2.052772    0.316368
 C     -1.327678   -3.109162    1.116939
 C     -2.711674   -3.108721    0.905159
 C      1.561602   -2.510605   -0.255159
 C      2.878245   -2.077046   -0.424012
 C      3.376476   -0.965646    0.210591
 H     -3.281321   -3.991970    1.163776
 H      3.518107   -2.601733   -1.121670
 C      4.753065   -0.488890   -0.050625
 Cl     3.034388    1.014779    2.010646
 N     -1.341135   -0.871749    0.363257
 N      1.306955   -0.746632    1.282533
 Cl    -3.274749    0.469430   -0.680466
 C     -4.817378   -2.111816    0.040510
 C     -5.701324   -2.307922    1.093585
 C     -5.296584   -1.997774   -1.258641
 C     -7.542632   -2.265086   -0.448003
 C     -6.657124   -2.078455   -1.502051
 C     -7.064005   -2.378388    0.850207
 H     -5.328359   -2.389536    2.107856
 H     -7.752493   -2.522755    1.677797
 H     -8.610412   -2.323746   -0.640203
 H     -7.027757   -1.995073   -2.519604
 H     -4.608606   -1.855690   -2.082486
 C      5.835884   -1.308399    0.237868
 C      4.956166    0.764422   -0.614480
 C      7.327828    0.384620   -0.586067
 C      6.242230    1.198784   -0.885229
 C      7.124165   -0.868228   -0.024035
 H      5.676910   -2.284983    0.680310
 H      7.970405   -1.507338    0.211039
 H      8.337284    0.728283   -0.794622
 H      6.397888    2.176341   -1.332219
 H      4.108820    1.392674   -0.855135
 C     -0.636724   -4.306502    1.702518
 H     -0.736908   -5.172609    1.045239
 H      0.416630   -4.113329    1.878960
 H     -1.104621   -4.556964    2.656870
 C      1.034317   -3.666704   -1.056036
 H      1.554454   -3.722056   -2.011317
 H      1.206838   -4.606353   -0.526689
 H     -0.030307   -3.569862   -1.245762
