71

 Si    -0.283657    1.753365    2.069965
 O      0.946949    2.346648    1.202056
 C      1.193620    2.970451   -0.013343
 C      1.566465    1.938682   -1.042525
 H      2.071315    3.604297    0.162140
 C      0.646313    1.362314   -1.902635
 C      2.892510    1.539640   -1.116036
 C      1.041646    0.402480   -2.817942
 H     -0.384755    1.668574   -1.868250
 C      3.299073    0.578801   -2.028133
 H      3.619999    2.001832   -0.462057
 C      2.370380    0.006278   -2.883609
 H      0.309936   -0.028522   -3.494791
 H      4.342716    0.284233   -2.073660
 H      2.682904   -0.740051   -3.608499
 C      0.038650    3.852996   -0.406727
 C     -0.262816    4.827468    0.650366
 H      0.271922    4.385909   -1.335076
 H     -0.843233    3.245128   -0.571581
 C     -0.504089    5.602099    1.534540
 H     -0.727893    6.288598    2.316212
 Cl     0.382258    2.458951    3.861517
 Cl    -2.224432    2.193970    2.405195
 O     -0.747122    1.120725    0.416794
 O      0.053949    0.117676    2.404777
 C     -1.230966   -1.056317    0.543549
 C      0.217996   -1.176823    0.568176
 C      2.162359   -0.440083    1.704450
 C     -2.880406    0.497839   -0.112235
 C     -3.850678   -0.508482   -0.053031
 C     -2.139523   -2.078519    0.654560
 C     -3.473650   -1.756619    0.380285
 C      0.951614   -1.879947   -0.355994
 C      2.336853   -1.845034   -0.205439
 C      2.960137   -1.152248    0.806128
 H     -4.227929   -2.528788    0.460702
 H      2.951961   -2.380157   -0.914927
 C      4.432810   -1.202769    0.946483
 Cl     2.749996    0.366703    3.026474
 N     -1.643349    0.201994    0.282361
 N      0.839178   -0.473714    1.528074
 Cl    -3.181497    2.040788   -0.672357
 C     -5.260064   -0.218028   -0.404110
 C     -6.241409   -0.339918    0.570788
 C     -5.605987    0.148160   -1.698812
 C     -7.912489    0.281334   -1.038795
 C     -6.931178    0.394003   -2.015676
 C     -7.566671   -0.084259    0.254991
 H     -5.970791   -0.620211    1.582141
 H     -8.330116   -0.171779    1.022632
 H     -8.951479    0.478549   -1.288046
 H     -7.198937    0.674889   -3.030147
 H     -4.843679    0.233139   -2.462953
 C      5.066780   -2.440338    0.927617
 C      5.190778   -0.044637    1.065318
 C      7.199996   -1.360141    1.144893
 C      6.569516   -0.122637    1.159384
 C      6.445839   -2.520269    1.032845
 H      4.481902   -3.348843    0.848786
 H      6.931303   -3.491915    1.028073
 H      8.282131   -1.419883    1.222468
 H      7.154063    0.788695    1.245768
 H      4.708140    0.921453    1.074243
 C     -1.745945   -3.471001    1.053492
 H     -1.904299   -4.167459    0.227175
 H     -0.707113   -3.519824    1.363813
 H     -2.370928   -3.796349    1.887249
 C      0.312731   -2.647027   -1.476277
 H      1.000360   -2.715831   -2.315939
 H      0.071487   -3.662056   -1.152938
 H     -0.601455   -2.168183   -1.813937
