71

 Si     0.255434    1.257579    1.836694
 O     -0.714345    2.580559    1.798635
 C     -0.835620    3.623647    0.894748
 C     -1.078778    3.015935   -0.458162
 H      0.102697    4.183795    0.861789
 C     -2.319003    2.513241   -0.803214
 C     -0.000053    2.774670   -1.292219
 C     -2.474462    1.729067   -1.930748
 H     -3.172448    2.716908   -0.175320
 C     -0.146816    1.999631   -2.427712
 H      0.969866    3.182158   -1.040492
 C     -1.382876    1.457577   -2.741329
 H     -3.454787    1.337321   -2.185061
 H      0.706909    1.827274   -3.074647
 H     -1.506213    0.852084   -3.634602
 C     -1.926698    4.537247    1.389085
 C     -1.564101    5.134074    2.684377
 H     -2.116808    5.340807    0.666709
 H     -2.847325    3.967116    1.512055
 C     -1.251525    5.616026    3.738546
 H     -0.989424    6.058302    4.669960
 Cl    -0.181116    0.750858    3.727918
 Cl     1.993151    2.197400    1.422341
 O     -0.599888    0.723384    0.453943
 O      0.962671   -0.386802    1.698351
 C     -0.302560   -1.373116   -0.292765
 C      1.070900   -0.944579   -0.507415
 C      3.026927   -0.502161    0.749476
 C     -2.316814   -0.711121    0.764082
 C     -2.873812   -1.964778    0.510795
 C     -0.777953   -2.646799   -0.518454
 C     -2.091957   -2.903429   -0.123918
 C      1.766204   -0.980946   -1.689517
 C      3.138147   -0.715941   -1.617037
 C      3.787491   -0.511887   -0.423690
 H     -2.508542   -3.886840   -0.299426
 H      3.716664   -0.696918   -2.531537
 C      5.245765   -0.269445   -0.376404
 Cl     3.675850   -0.437617    2.283904
 N     -1.082247   -0.468497    0.319420
 N      1.702103   -0.608705    0.640424
 Cl    -3.053438    0.478383    1.658505
 C     -4.251923   -2.282557    0.945119
 C     -4.475577   -3.370511    1.779157
 C     -5.322191   -1.514730    0.501626
 C     -6.833656   -2.916363    1.735170
 C     -6.610892   -1.834226    0.892668
 C     -5.765129   -3.683169    2.179399
 H     -3.641466   -3.965132    2.132830
 H     -5.934369   -4.528711    2.839855
 H     -7.845280   -3.163167    2.045504
 H     -7.445138   -1.235901    0.538138
 H     -5.151757   -0.673702   -0.158293
 C      6.122927   -1.190629   -0.933328
 C      5.733886    0.900594    0.193600
 C      7.974792    0.218401   -0.337854
 C      7.095781    1.145438    0.208971
 C      7.487852   -0.949997   -0.907688
 H      5.743722   -2.105244   -1.373934
 H      8.171862   -1.677478   -1.335117
 H      9.044325    0.409241   -0.320589
 H      7.472748    2.063620    0.649936
 H      5.047533    1.623713    0.615658
 C      0.059182   -3.735760   -1.126318
 H     -0.143874   -3.820652   -2.196164
 H      1.119498   -3.549715   -0.988131
 H     -0.188688   -4.690007   -0.662008
 C      1.111505   -1.276480   -3.007332
 H      1.423224   -0.533867   -3.741996
 H      1.419883   -2.257296   -3.376287
 H      0.030053   -1.251176   -2.930679
