71

 Si    -0.278531    2.083878    1.702892
 O      0.590992    2.813180    0.547907
 C      0.354626    3.016465   -0.805369
 C      0.906910    1.857834   -1.579254
 H     -0.717581    3.071390   -0.984753
 C      2.250104    1.542593   -1.477753
 C      0.081313    1.066853   -2.361365
 C      2.773028    0.460275   -2.165598
 H      2.888456    2.160134   -0.862640
 C      0.592014   -0.028109   -3.038380
 H     -0.970007    1.306031   -2.438018
 C      1.942699   -0.331354   -2.945680
 H      3.830984    0.234711   -2.095221
 H     -0.064710   -0.639147   -3.651331
 H      2.350943   -1.178423   -3.489501
 C      0.978373    4.339650   -1.182764
 C      0.308991    5.447862   -0.482462
 H      0.905922    4.504940   -2.264884
 H      2.034362    4.328566   -0.909848
 C     -0.259237    6.331086    0.099212
 H     -0.751833    7.126485    0.606068
 Cl     0.544139    3.130411    3.247949
 Cl    -2.201307    2.373608    2.240062
 O     -0.798171    1.060850    0.291387
 O      0.322159    0.587568    2.277308
 C     -1.108891   -1.064086    0.905464
 C      0.340161   -1.114758    0.784818
 C      2.349317   -0.044689    1.446236
 C     -2.914441    0.243221    0.123699
 C     -3.806063   -0.772313    0.485147
 C     -1.935290   -2.080463    1.315795
 C     -3.307359   -1.883897    1.121080
 C      1.014780   -1.995495   -0.027310
 C      2.405579   -1.892499   -0.044489
 C      3.090494   -0.947003    0.681371
 H     -3.997770   -2.656261    1.434738
 H      2.970402   -2.571309   -0.668966
 C      4.570343   -0.909861    0.658429
 Cl     3.021629    1.146319    2.384475
 N     -1.629754    0.089231    0.437464
 N      1.018647   -0.170240    1.459568
 Cl    -3.360045    1.630473   -0.691415
 C     -5.257786   -0.624588    0.232918
 C     -6.133891   -0.587821    1.309668
 C     -5.745688   -0.545285   -1.065492
 C     -7.984201   -0.381791   -0.207932
 C     -7.107677   -0.428083   -1.284803
 C     -7.496494   -0.460498    1.089399
 H     -5.752494   -0.642989    2.322643
 H     -8.177839   -0.423104    1.934471
 H     -9.052389   -0.285067   -0.381576
 H     -7.486602   -0.372481   -2.301204
 H     -5.064825   -0.584798   -1.906436
 C      5.274526   -2.073767    0.944925
 C      5.260811    0.250090    0.329690
 C      7.346610   -0.916057    0.582322
 C      6.644298    0.245511    0.287221
 C      6.659801   -2.076073    0.913430
 H      4.741893   -2.979093    1.210829
 H      7.202750   -2.986961    1.148573
 H      8.432785   -0.916284    0.553778
 H      7.176424    1.154618    0.022476
 H      4.720345    1.155097    0.092657
 C      0.318031   -3.016033   -0.879566
 H      0.354932   -3.999372   -0.404965
 H     -0.720142   -2.753698   -1.051810
 H      0.820890   -3.088210   -1.842823
 C     -1.416343   -3.341806    1.942784
 H     -1.943188   -3.520377    2.881927
 H     -1.597464   -4.198805    1.290418
 H     -0.353448   -3.275979    2.152409
