71

 Si     0.264556    0.868225    1.664302
 O     -0.766740    2.145764    1.798148
 C     -0.884216    3.304532    1.039207
 C     -1.101595    2.869578   -0.384146
 H      0.051595    3.866191    1.093751
 C     -2.333786    2.411573   -0.813886
 C     -0.001842    2.716903   -1.212708
 C     -2.458951    1.752002   -2.022774
 H     -3.206328    2.553851   -0.193435
 C     -0.117878    2.064081   -2.426069
 H      0.961556    3.090789   -0.893053
 C     -1.345038    1.560150   -2.826267
 H     -3.432507    1.392601   -2.343270
 H      0.753536    1.953818   -3.064169
 H     -1.442115    1.046110   -3.778484
 C     -1.984720    4.143589    1.634426
 C     -1.637975    4.568985    3.000157
 H     -2.165337    5.033800    1.018806
 H     -2.907993    3.565084    1.671871
 C     -1.337525    4.912037    4.110690
 H     -1.086554    5.231700    5.093939
 Cl    -0.214727    0.032887    3.428274
 Cl     1.971889    1.934392    1.502048
 O     -0.593789    0.495423    0.245330
 O      1.069291   -0.682932    1.277310
 C     -0.272937   -1.441836   -0.836377
 C      1.113959   -1.020825   -0.982636
 C      3.110931   -0.651614    0.237581
 C     -2.294456   -1.007568    0.329351
 C     -2.837556   -2.197087   -0.164231
 C     -0.779864   -2.607383   -1.356267
 C     -2.079227   -2.970089   -1.026029
 C      1.797882   -1.018821   -2.170847
 C      3.164691   -0.771152   -2.154198
 C      3.836160   -0.611826   -0.957100
 H     -0.153987   -3.235219   -1.977465
 H     -2.493369   -3.893211   -1.415144
 H      1.262068   -1.202753   -3.093109
 H      3.716241   -0.729848   -3.086220
 C      5.303259   -0.399972   -0.926484
 C      3.735973   -0.668210    1.585949
 N     -1.055028   -0.680401   -0.058631
 N      1.775162   -0.762046    0.167112
 C     -2.988513   -0.083049    1.256702
 C     -4.209537   -2.611580    0.218788
 C     -4.530428   -2.848626    1.550601
 C     -5.176524   -2.783263   -0.765780
 C     -6.777899   -3.412353    0.911667
 C     -6.459521   -3.177610   -0.419507
 C     -5.810707   -3.251135    1.895567
 H     -3.777463   -2.735964    2.321003
 H     -6.052672   -3.441222    2.937392
 H     -7.782458   -3.724708    1.183401
 H     -7.212039   -3.302785   -1.192877
 H     -4.932583   -2.596805   -1.805398
 C      6.155570   -1.335573   -1.501827
 C      5.830070    0.745339   -0.339435
 C      8.050345    0.010777   -0.891768
 C      7.199819    0.951790   -0.324869
 C      7.526908   -1.133136   -1.479636
 H      5.750704   -2.232221   -1.956978
 H      8.187987   -1.871848   -1.923868
 H      9.124887    0.171064   -0.876807
 H      7.604241    1.851477    0.130146
 H      5.169058    1.485397    0.094927
 H     -2.481222    0.865976    1.280346
 H     -4.025212    0.034390    0.954651
 H     -2.968704   -0.503286    2.260727
 H      4.073261    0.321154    1.877014
 H      3.013227   -1.019083    2.310614
 H      4.596693   -1.334392    1.559950
