71

 Si     0.558218    1.931354   -0.659914
 O     -1.035246    1.982437   -0.433792
 C     -2.099581    2.291320    0.394566
 C     -2.026846    1.435885    1.627589
 H     -2.998438    2.014418   -0.167958
 C     -0.838806    1.331915    2.329670
 C     -3.133070    0.720836    2.059221
 C     -0.736737    0.492089    3.423216
 H      0.010191    1.910314    2.012314
 C     -3.044478   -0.113398    3.163958
 H     -4.072580    0.817441    1.529185
 C     -1.841231   -0.238307    3.842668
 H      0.205904    0.416451    3.956805
 H     -3.917426   -0.668869    3.494845
 H     -1.766801   -0.895743    4.704507
 C     -2.185856    3.767627    0.699103
 C     -2.268977    4.546838   -0.546100
 H     -3.080570    3.959843    1.304269
 H     -1.313500    4.086654    1.266450
 C     -2.334482    5.154323   -1.579436
 H     -2.396308    5.714920   -2.481746
 Cl     1.484032    2.388281   -2.394041
 Cl     1.081437    3.626680    0.371628
 O      1.369818    1.009569    0.516066
 O      0.261135    0.338181   -1.419290
 C      1.446167   -1.235333    0.210220
 C     -0.011725   -1.218588    0.192311
 C     -1.834167   -0.542627   -1.164581
 C      3.412094    0.096451    0.098105
 C      4.187973   -1.050072   -0.087335
 C      2.183638   -2.387022    0.077559
 C      3.560022   -2.284116   -0.069729
 C     -0.818412   -2.039985    0.937313
 C     -2.164540   -2.107896    0.616547
 C     -2.678575   -1.408370   -0.462220
 H      1.678869   -3.343887    0.044712
 H      4.151198   -3.182091   -0.207558
 H     -0.389678   -2.636358    1.732189
 H     -2.815272   -2.763637    1.181372
 C     -4.093428   -1.603541   -0.864952
 C     -2.215770    0.268514   -2.343932
 N      2.085676   -0.056622    0.233259
 N     -0.555806   -0.457613   -0.775212
 C      3.927003    1.484230    0.187411
 C      5.652678   -0.951586   -0.297019
 C      6.161087   -0.188827   -1.343317
 C      6.522455   -1.644329    0.538039
 C      8.396250   -0.802421   -0.708772
 C      7.891498   -1.565684    0.335781
 C      7.529023   -0.116773   -1.550044
 H      5.488393    0.339569   -2.008271
 H      7.918643    0.476479   -2.372419
 H      9.469220   -0.742623   -0.869133
 H      8.565540   -2.102821    0.996967
 H      6.132821   -2.235510    1.358797
 C     -4.412842   -1.944100   -2.175725
 C     -5.108946   -1.500022    0.079662
 C     -6.743756   -2.037148   -1.597430
 C     -6.429521   -1.708042   -0.285586
 C     -5.731722   -2.160727   -2.540487
 H     -3.629289   -2.058832   -2.913921
 H     -5.968702   -2.430285   -3.565798
 H     -7.778384   -2.203455   -1.884372
 H     -7.215073   -1.615172    0.458974
 H     -4.869913   -1.245994    1.103598
 H      3.444950    1.991916    1.016198
 H      5.002195    1.478461    0.319040
 H      3.668706    2.024140   -0.721531
 H     -3.293054    0.340688   -2.427111
 H     -1.780246    1.249048   -2.250809
 H     -1.817081   -0.198444   -3.244574
