71

 Si     0.663411    1.941215   -0.665169
 O     -0.950420    1.878516   -0.630440
 C     -1.960410    2.513665    0.081731
 C     -2.244893    1.652536    1.281862
 H     -1.597767    3.486825    0.421726
 C     -3.457711    1.027109    1.509001
 C     -1.204493    1.447173    2.178183
 C     -3.626192    0.192716    2.606768
 H     -4.288442    1.192153    0.837423
 C     -1.359503    0.611454    3.266713
 H     -0.268529    1.953713    2.015629
 C     -2.576206   -0.024524    3.483734
 H     -4.586458   -0.285311    2.777789
 H     -0.532573    0.462777    3.954669
 H     -2.706982   -0.678999    4.341075
 C     -3.118521    2.728820   -0.858576
 C     -2.676991    3.463091   -2.053580
 H     -3.533221    1.771304   -1.173060
 H     -3.916341    3.293945   -0.361942
 C     -2.281579    4.046068   -3.025448
 H     -1.951831    4.574727   -3.888522
 Cl     1.827365    2.317108   -2.271265
 Cl     0.923774    3.749123    0.271648
 O      1.323370    1.166938    0.695311
 O      0.555301    0.284926   -1.325877
 C      1.474745   -1.096854    0.619378
 C      0.039451   -1.126485    0.360582
 C     -1.539891   -0.621968   -1.335363
 C      3.414812    0.276218    0.691122
 C      4.226902   -0.858714    0.745838
 C      2.240913   -2.233116    0.718616
 C      3.621512   -2.103585    0.784406
 C     -0.876494   -1.884965    1.043291
 C     -2.155326   -2.000336    0.521258
 C     -2.489261   -1.418791   -0.690106
 H      1.761854   -3.203541    0.698849
 H      4.239699   -2.992693    0.831720
 H     -0.583325   -2.392257    1.953139
 H     -2.890514   -2.603579    1.039231
 C     -3.823620   -1.666646   -1.291228
 C     -1.713829    0.058296   -2.638773
 N      2.086203    0.097461    0.629964
 N     -0.342885   -0.479421   -0.754283
 C      3.885360    1.682433    0.722368
 C      5.704798   -0.737009    0.764378
 C      6.365761   -0.068266   -0.260794
 C      6.436701   -1.315035    1.795776
 C      8.476337   -0.545845    0.784443
 C      7.819216   -1.215092    1.808480
 C      7.747962    0.024554   -0.251954
 H      5.802715    0.369599   -1.076407
 H      8.257851    0.543582   -1.058603
 H      9.560168   -0.469644    0.792747
 H      8.384247   -1.661938    2.621558
 H      5.927047   -1.832317    2.600542
 C     -3.930256   -2.194065   -2.574452
 C     -4.977090   -1.416566   -0.556963
 C     -6.326654   -2.185123   -2.390559
 C     -6.224770   -1.668001   -1.106159
 C     -5.176368   -2.452885   -3.121669
 H     -3.038213   -2.419500   -3.145651
 H     -5.248386   -2.868095   -4.122938
 H     -7.303911   -2.385211   -2.821141
 H     -7.119909   -1.461546   -0.526311
 H     -4.901576   -1.014824    0.444179
 H      3.285716    2.244261    1.431401
 H      4.932563    1.723499    0.996211
 H      3.740753    2.132735   -0.257889
 H     -2.735511   -0.026806   -2.984401
 H     -1.444383    1.096154   -2.534030
 H     -1.045276   -0.395146   -3.369186
