71

 Si     0.531735    1.583112    0.062345
 O     -1.035694    1.362061    0.368393
 C     -2.003075    1.910975    1.203951
 C     -2.959971    2.657511    0.323066
 H     -1.520583    2.609979    1.891283
 C     -2.422036    3.665211   -0.469656
 C     -4.307863    2.358368    0.215355
 C     -3.216107    4.362765   -1.360353
 H     -1.370841    3.900834   -0.380160
 C     -5.112556    3.060057   -0.673484
 H     -4.750886    1.583051    0.826430
 C     -4.569166    4.059480   -1.464817
 H     -2.780629    5.146940   -1.972767
 H     -6.169749    2.820442   -0.744741
 H     -5.198366    4.606226   -2.161532
 C     -2.594662    0.779505    2.004901
 C     -1.535238    0.036857    2.703204
 H     -3.307395    1.161733    2.744926
 H     -3.129985    0.094976    1.351081
 C     -0.651505   -0.552358    3.261878
 H      0.115139   -1.068873    3.785507
 Cl     1.318500    2.421291   -1.600834
 Cl     0.862315    3.166358    1.327826
 O      1.528771    0.596144    1.023259
 O      0.367334    0.118360   -0.955663
 C      1.987584   -1.467269    0.197221
 C      0.559099   -1.732135    0.318281
 C     -1.530808   -1.120119   -0.615184
 C      3.665347    0.211652    0.314714
 C      4.606373   -0.685616   -0.197605
 C      2.894565   -2.387684   -0.265013
 C      4.208496   -1.984021   -0.464222
 C      0.004378   -2.798048    0.976256
 C     -1.365510   -2.993815    0.869945
 C     -2.138161   -2.186473    0.055513
 H      2.565106   -3.391312   -0.501588
 H      4.929652   -2.689190   -0.861118
 H      0.633954   -3.457563    1.560057
 H     -1.832847   -3.815378    1.400112
 C     -3.594791   -2.443988   -0.074409
 C     -2.192068   -0.227265   -1.593010
 N      2.405366   -0.221585    0.472691
 N     -0.228976   -0.905047   -0.393479
 C      3.945544    1.606626    0.731264
 C      6.002712   -0.256387   -0.452665
 C      6.261415    0.822251   -1.292021
 C      7.060073   -0.948183    0.127926
 C      8.621904    0.521026   -0.956764
 C      8.366675   -0.557097   -0.119537
 C      7.567603    1.208059   -1.545314
 H      5.442788    1.355099   -1.760787
 H      7.762254    2.048179   -2.205879
 H      9.646058    0.826435   -1.152692
 H      9.187583   -1.096978    0.343760
 H      6.864887   -1.785824    0.787624
 C     -4.158630   -2.764974   -1.304009
 C     -4.398402   -2.388283    1.059010
 C     -6.320903   -2.947920   -0.269580
 C     -5.759203   -2.634367    0.961027
 C     -5.517859   -3.017421   -1.400796
 H     -3.535401   -2.831629   -2.187832
 H     -5.950646   -3.271857   -2.364195
 H     -7.386814   -3.143759   -0.346955
 H     -6.381322   -2.583299    1.850139
 H     -3.963008   -2.144515    2.020808
 H      3.433770    1.809340    1.665824
 H      5.012908    1.756395    0.841378
 H      3.551746    2.293478   -0.014756
 H     -3.240001   -0.477100   -1.691148
 H     -2.081229    0.794587   -1.275227
 H     -1.698753   -0.338034   -2.557160
