71

 Si     0.114120    0.734099    2.237344
 O      1.122662    1.607944    1.321369
 C      1.139832    2.661814    0.424368
 C      0.328546    2.288402   -0.779860
 H      0.695542    3.542087    0.900795
 C      0.712669    1.206249   -1.552221
 C     -0.860368    2.934952   -1.063790
 C     -0.094285    0.745604   -2.572584
 H      1.647676    0.717961   -1.342672
 C     -1.673259    2.486033   -2.094234
 H     -1.164163    3.791616   -0.472599
 C     -1.299093    1.382078   -2.841618
 H      0.218049   -0.099412   -3.176930
 H     -2.604340    3.001899   -2.311291
 H     -1.934881    1.028635   -3.648659
 C      2.585488    2.961217    0.096260
 C      3.372743    3.225326    1.309420
 H      2.648466    3.827897   -0.573741
 H      3.024823    2.110422   -0.424750
 C      4.003154    3.422060    2.311759
 H      4.571581    3.609233    3.191929
 Cl    -1.657150    1.231921    3.078322
 Cl     1.168987    0.904143    3.985838
 O     -0.750190    0.452326    0.671892
 O      0.606042   -0.888707    2.034370
 C     -1.076795   -1.720870    0.214458
 C      0.353142   -1.720906   -0.058969
 C      2.484467   -1.027966    0.718398
 C     -2.927448   -0.282316    0.512121
 C     -3.790982   -1.380196    0.399969
 C     -1.890532   -2.814125    0.072396
 C     -3.263361   -2.640419    0.203720
 C      0.888366   -2.179717   -1.234381
 C      2.252155   -2.028967   -1.445649
 C      3.056150   -1.443907   -0.486819
 H     -1.452043   -3.782593   -0.133084
 H     -3.926765   -3.493885    0.126983
 H      0.239612   -2.615488   -1.982652
 H      2.693191   -2.365554   -2.377342
 C      4.506952   -1.245875   -0.741469
 C      3.239197   -0.434028    1.840587
 N     -1.606381   -0.510234    0.495408
 N      1.159802   -1.180271    0.867393
 C     -3.409438    1.119687    0.554201
 C     -5.258070   -1.175422    0.484068
 C     -5.826978   -0.652467    1.640104
 C     -6.070452   -1.524580   -0.588576
 C     -8.008087   -0.817205    0.644377
 C     -7.442534   -1.340850   -0.510541
 C     -7.198847   -0.476868    1.721213
 H     -5.200808   -0.395362    2.486041
 H     -7.637494   -0.074157    2.629783
 H     -9.083572   -0.676077    0.707214
 H     -8.071137   -1.609279   -1.354863
 H     -5.631721   -1.930361   -1.492986
 C      5.455486   -2.004623   -0.065553
 C      4.912601   -0.297312   -1.672217
 C      7.209578   -0.858406   -1.243550
 C      6.262917   -0.101671   -1.920594
 C      6.804337   -1.811777   -0.317721
 H      5.142826   -2.751567    0.655178
 H      7.541727   -2.409395    0.210763
 H      8.267510   -0.706871   -1.439278
 H      6.574910    0.644072   -2.646274
 H      4.176126    0.295813   -2.201825
 H     -2.583797    1.786483    0.367025
 H     -4.169368    1.242882   -0.215615
 H     -3.857966    1.354660    1.514008
 H      2.976822    0.613574    1.922796
 H      2.961769   -0.925976    2.766585
 H      4.302279   -0.535427    1.666448
