71

 Si     0.341591    1.018352    0.759011
 O     -0.724262    2.169909    0.301375
 C     -1.613050    3.098796    0.797024
 C     -2.740400    3.217107   -0.188679
 H     -2.008906    2.763135    1.760140
 C     -2.440836    3.242093   -1.542715
 C     -4.064533    3.273005    0.219407
 C     -3.451752    3.312085   -2.485767
 H     -1.406169    3.192475   -1.850916
 C     -5.083198    3.348452   -0.721622
 H     -4.306674    3.257224    1.277025
 C     -4.779308    3.365231   -2.074676
 H     -3.205628    3.328734   -3.543621
 H     -6.118149    3.393355   -0.393780
 H     -5.575862    3.423595   -2.811228
 C     -0.913884    4.427240    0.999140
 C      0.034162    4.395142    2.125936
 H     -1.650733    5.214046    1.199294
 H     -0.380464    4.684651    0.083311
 C      0.785084    4.368384    3.062727
 H      1.449215    4.357367    3.892901
 Cl    -0.393741    0.693579    2.623463
 Cl     1.987547    2.101412    0.304179
 O     -0.158881    0.140789   -0.625484
 O      1.281180   -0.467003    1.097109
 C      0.326051   -2.067850   -0.688788
 C      1.724126   -1.664322   -0.782575
 C      3.475124   -0.655826    0.454954
 C     -1.889400   -1.308650   -0.293079
 C     -2.341477   -2.630240   -0.253268
 C     -0.088481   -3.377219   -0.693519
 C     -1.431578   -3.650364   -0.473888
 C      2.601768   -2.105440   -1.739180
 C      3.942882   -1.762797   -1.617666
 C      4.395819   -1.057388   -0.518391
 H      0.638436   -4.167971   -0.827904
 H     -1.770560   -4.679454   -0.444492
 H      2.237132   -2.700289   -2.567103
 H      4.647510   -2.070107   -2.381487
 C      5.832415   -0.726103   -0.364998
 C      3.845926   -0.045699    1.758081
 N     -0.581481   -1.095988   -0.505010
 N      2.175766   -0.905330    0.236363
 C     -2.736069   -0.105363   -0.134843
 C     -3.766200   -2.934974    0.021972
 C     -4.371521   -2.469451    1.184431
 C     -4.495769   -3.709978   -0.873104
 C     -6.426363   -3.540413    0.547479
 C     -5.824392   -4.007544   -0.613545
 C     -5.697146   -2.773855    1.447678
 H     -3.803885   -1.880018    1.894224
 H     -6.161561   -2.411959    2.360576
 H     -7.466988   -3.776056    0.752774
 H     -6.390534   -4.606655   -1.321042
 H     -4.031447   -4.070942   -1.783623
 C      6.789109   -1.734634   -0.399577
 C      6.230111    0.597257   -0.207128
 C      8.527138   -0.101233   -0.106876
 C      7.573974    0.909203   -0.081675
 C      8.133211   -1.423378   -0.265279
 H      6.484876   -2.768413   -0.516419
 H      8.874742   -2.216980   -0.284744
 H      9.580837    0.143314   -0.004373
 H      7.877658    1.945599    0.035238
 H      5.490202    1.388196   -0.197173
 H     -2.395917    0.666622   -0.808602
 H     -3.774553   -0.349657   -0.322887
 H     -2.630655    0.276209    0.876187
 H      3.969180    1.028870    1.665146
 H      3.057499   -0.240723    2.474737
 H      4.782133   -0.481160    2.098849
