71

 Si    -0.139597    0.487894    1.801592
 O     -0.356689    1.876515    1.032841
 C     -0.738627    2.370697   -0.196038
 C     -1.741528    3.450697    0.033778
 H     -1.192885    1.600622   -0.791832
 C     -1.536821    4.354612    1.063501
 C     -2.883011    3.540340   -0.747170
 C     -2.470120    5.344664    1.318893
 H     -0.649098    4.265767    1.673916
 C     -3.818985    4.533749   -0.498954
 H     -3.044306    2.837104   -1.554985
 C     -3.614412    5.435927    0.534798
 H     -2.305442    6.046720    2.131039
 H     -4.711440    4.601432   -1.114631
 H     -4.347823    6.212953    0.731609
 C      0.485642    2.840171   -0.942266
 C      1.209365    1.709228   -1.541167
 H      0.194781    3.505049   -1.763762
 H      1.135114    3.398264   -0.272242
 C      1.750494    0.779699   -2.074489
 H      2.233180   -0.006988   -2.593701
 Cl    -1.600910   -0.610012    2.653443
 Cl     0.530104    1.345890    3.515325
 O     -0.361255   -0.218599    0.170374
 O      1.244525   -0.520662    1.764781
 C      0.085348   -2.430466    0.220323
 C      1.480100   -2.041810    0.078404
 C      3.081446   -0.384366    0.480170
 C     -2.100417   -1.616660   -0.025103
 C     -2.648051   -2.869972    0.131004
 C     -0.400365   -3.725155    0.308884
 C     -1.761578   -3.934057    0.302762
 C      2.341033   -2.653439   -0.820949
 C      3.601845   -2.138947   -1.015539
 C      3.997098   -0.971749   -0.362459
 H      0.300138   -4.544448    0.417309
 H     -2.155685   -4.935542    0.428844
 H      1.998914   -3.530100   -1.357326
 H      4.290224   -2.628805   -1.694554
 C      5.342469   -0.399407   -0.536906
 C      3.261657    0.961360    1.154485
 N     -0.782894   -1.424987    0.104336
 N      1.899615   -0.961036    0.735968
 C     -2.818312   -0.372585   -0.510752
 C     -4.106350   -3.053276    0.184859
 F     -2.173863    0.003239   -1.594964
 F     -2.779520    0.577766    0.370909
 F     -4.054231   -0.646261   -0.824444
 F      2.125967    1.594215    1.062829
 F      4.178632    1.653204    0.537937
 F      3.590686    0.765824    2.399458
 C     -4.831958   -2.342157    1.132349
 C     -4.748490   -3.925383   -0.682746
 C     -6.851534   -3.355984    0.327933
 C     -6.124178   -4.070659   -0.614870
 C     -6.203827   -2.495050    1.204772
 H     -4.322597   -1.673130    1.813413
 H     -6.769871   -1.941014    1.947707
 H     -7.930503   -3.472886    0.381696
 H     -6.630163   -4.744432   -1.300241
 H     -4.180353   -4.477112   -1.422816
 C      6.166245   -0.245332    0.570556
 C      5.779746   -0.014356   -1.796296
 C      7.861186    0.703587   -0.837966
 C      7.038457    0.543662   -1.945088
 C      7.425729    0.304444    0.419064
 H      5.827858   -0.556293    1.549843
 H      8.070790    0.420721    1.284962
 H      8.849619    1.139160   -0.956097
 H      7.377270    0.856051   -2.928601
 H      5.132412   -0.128110   -2.657713
