71

 Si     0.655607    1.053698    1.458685
 O     -0.392099    2.294595    1.599684
 C     -0.774897    3.298230    0.719609
 C     -1.324121    2.663312   -0.529470
 H      0.110442    3.879585    0.447676
 C     -2.652061    2.308392   -0.653503
 C     -0.441815    2.286482   -1.530443
 C     -3.076430    1.499376   -1.693246
 H     -3.371661    2.651801    0.070889
 C     -0.853184    1.483850   -2.575222
 H      0.588714    2.600898   -1.471867
 C     -2.172558    1.062672   -2.646644
 H     -4.122623    1.218756   -1.763094
 H     -0.144458    1.195408   -3.344839
 H     -2.503635    0.427650   -3.463571
 C     -1.735958    4.188947    1.458196
 C     -1.075283    4.828283    2.606117
 H     -2.132852    4.968890    0.796748
 H     -2.570126    3.592348    1.823202
 C     -0.519867    5.346049    3.535740
 H     -0.043058    5.819635    4.360544
 Cl     1.062710    0.858149    3.399956
 Cl     2.153451    1.921742    0.444315
 O     -0.534913    0.498691    0.353576
 O      1.176375   -0.630507    1.210245
 C     -0.314508   -1.379609   -0.866590
 C      1.097164   -1.081648   -1.034829
 C      3.126743   -0.853740    0.111645
 C     -2.170104   -0.985314    0.506275
 C     -2.887033   -2.022491   -0.039811
 C     -0.966567   -2.472135   -1.430093
 C     -2.254795   -2.760654   -1.048674
 C      1.781700   -1.152145   -2.236503
 C      3.145767   -0.971973   -2.251728
 C      3.851391   -0.822286   -1.059243
 H     -0.440111   -3.083387   -2.153138
 H     -2.779670   -3.593107   -1.502624
 H      1.218636   -1.308328   -3.148176
 H      3.681911   -0.956802   -3.193122
 C      5.299481   -0.573495   -1.033354
 C      3.741110   -1.005854    1.495738
 N     -0.975230   -0.640085    0.010940
 N      1.787318   -0.867048    0.093664
 C     -2.471421   -0.238802    1.787269
 C     -4.256391   -2.313099    0.409642
 F     -3.406880   -0.843796    2.460769
 F     -2.801630    0.987320    1.539478
 F     -1.356046   -0.258558    2.476406
 F      4.965096   -1.459413    1.361419
 F      3.037086   -1.894277    2.145738
 F      3.756920    0.130235    2.121164
 C     -4.614174   -3.597179    0.799562
 C     -5.192480   -1.286483    0.440591
 C     -6.837152   -2.821413    1.273211
 C     -6.481661   -1.540599    0.869917
 C     -5.903403   -3.848907    1.237737
 H     -3.883155   -4.397156    0.780966
 H     -6.179948   -4.850761    1.553300
 H     -7.849292   -3.020628    1.614817
 H     -7.212352   -0.737451    0.889443
 H     -4.916125   -0.290714    0.122962
 C      6.182804   -1.431386   -1.673412
 C      5.771569    0.542089   -0.353840
 C      8.017201   -0.070477   -0.931867
 C      7.129563    0.794162   -0.304675
 C      7.543570   -1.182336   -1.616450
 H      5.812899   -2.304513   -2.198108
 H      8.237168   -1.859043   -2.107028
 H      9.085282    0.124718   -0.889208
 H      7.496900    1.668013    0.225154
 H      5.077150    1.213626    0.131385
