71

 Si    -0.463539    0.497469    2.065883
 O     -0.058159    1.981786    1.614428
 C      0.007102    2.761374    0.470782
 C      1.281606    2.415508   -0.230088
 H     -0.810494    2.519644   -0.187055
 C      2.490501    2.969188    0.151140
 C      1.265722    1.433164   -1.204909
 C      3.672458    2.541703   -0.425492
 H      2.516795    3.731018    0.916884
 C      2.443922    0.996025   -1.781951
 H      0.323991    1.014944   -1.515942
 C      3.652293    1.549339   -1.391163
 H      4.613963    2.981728   -0.113318
 H      2.416259    0.236887   -2.556199
 H      4.579955    1.213966   -1.841552
 C     -0.127876    4.196693    0.898187
 C     -1.458901    4.451876    1.468842
 H      0.027354    4.869503    0.045866
 H      0.624774    4.420916    1.653873
 C     -2.548154    4.652322    1.931115
 H     -3.509287    4.851692    2.340170
 Cl     0.339855    0.646120    3.921862
 Cl    -2.299832   -0.087368    2.659384
 O     -0.816694    0.275045    0.322049
 O      0.434046   -0.938793    1.790074
 C     -1.238102   -1.896430   -0.122140
 C      0.206648   -2.046715   -0.192535
 C      2.284008   -1.281212    0.561685
 C     -2.930143   -0.275829   -0.174518
 C     -3.919225   -1.224635   -0.300154
 C     -2.178818   -2.894265   -0.321048
 C     -3.513842   -2.558599   -0.367367
 C      0.834982   -2.728518   -1.225068
 C      2.206156   -2.715929   -1.314627
 C      2.968630   -1.983502   -0.403634
 H     -1.847420   -3.922449   -0.403046
 H     -4.263570   -3.334746   -0.466347
 H      0.225575   -3.258611   -1.946751
 H      2.704643   -3.270352   -2.101077
 C      4.439411   -1.996306   -0.444754
 C      2.904857   -0.304881    1.538647
 N     -1.654259   -0.636279   -0.003441
 N      0.952646   -1.379615    0.686689
 C     -3.073716    1.217850   -0.387163
 C     -5.337802   -0.837129   -0.291532
 F     -4.288625    1.517547   -0.752067
 F     -2.243784    1.509306   -1.368242
 F     -2.742122    1.881485    0.673679
 F      2.122141    0.732508    1.576528
 F      4.079438    0.068808    1.121926
 F      2.991465   -0.874185    2.706416
 C     -5.819924   -0.101274    0.783737
 C     -6.184878   -1.204954   -1.327425
 C     -7.996169   -0.077252   -0.224786
 C     -7.514206   -0.817579   -1.296403
 C     -7.149138    0.276519    0.817793
 H     -5.156392    0.170579    1.594158
 H     -7.526086    0.848415    1.660485
 H     -9.039976    0.223785   -0.200558
 H     -8.176260   -1.094527   -2.111697
 H     -5.805608   -1.776233   -2.166886
 C      5.152020   -2.367615    0.688116
 C      5.109857   -1.652910   -1.610694
 C      7.206906   -2.012599   -0.498316
 C      6.494071   -1.653231   -1.634772
 C      6.534176   -2.375470    0.661119
 H      4.631127   -2.652939    1.591517
 H      7.088359   -2.667383    1.548247
 H      8.293344   -2.015314   -0.518254
 H      7.018313   -1.373966   -2.544151
 H      4.553637   -1.365117   -2.494160
