71

 Si    -0.079117    1.159907    1.661009
 O      1.362440    1.216740    0.933840
 C      1.954691    1.925849   -0.105480
 C      0.937897    2.090769   -1.195492
 H      2.746695    1.266861   -0.474590
 C      0.763724    1.036714   -2.074222
 C      0.082694    3.173369   -1.282429
 C     -0.305106    1.002395   -2.949679
 H      1.490392    0.244822   -2.083085
 C     -0.978962    3.160980   -2.167292
 H      0.230041    4.034549   -0.650427
 C     -1.196973    2.062177   -2.981130
 H     -0.429996    0.162949   -3.626846
 H     -1.646690    4.014625   -2.211450
 H     -2.040729    2.049001   -3.664628
 C      2.601552    3.178141    0.418119
 C      3.563165    2.837069    1.478117
 H      3.122450    3.704175   -0.391333
 H      1.847010    3.843481    0.832109
 C      4.333496    2.528020    2.344985
 H      5.020855    2.274213    3.116064
 Cl    -0.629911    0.835811    3.569612
 Cl    -0.518992    3.138561    1.691310
 O     -1.022937    0.860612    0.269041
 O      0.114967   -0.602773    1.649179
 C     -1.177412   -1.299949   -0.453998
 C      0.270739   -1.436489   -0.423820
 C      2.162398   -1.208281    0.943640
 C     -3.071081   -0.017626    0.058350
 C     -3.931426   -1.040973   -0.265096
 C     -2.000751   -2.341392   -0.859343
 C     -3.365820   -2.215396   -0.760044
 C      1.048710   -2.001648   -1.422262
 C      2.410725   -2.070916   -1.245899
 C      3.004345   -1.642800   -0.056723
 H     -1.542685   -3.258414   -1.208394
 H     -4.009952   -3.041849   -1.037492
 H      0.579349   -2.320566   -2.344520
 H      3.040141   -2.449609   -2.042633
 C      4.465499   -1.622866    0.110519
 C      2.521870   -1.073373    2.414969
 N     -1.738132   -0.171178   -0.013134
 N      0.855931   -1.069262    0.709605
 C     -3.481104    1.378513    0.489962
 C     -5.387827   -0.923349   -0.062042
 F     -2.925946    2.232619   -0.321270
 F     -3.059601    1.536124    1.714931
 F     -4.777176    1.520301    0.439868
 F      2.335151    0.136874    2.837048
 F      3.766750   -1.422815    2.605986
 F      1.736793   -1.906206    3.053006
 C     -5.886081   -0.817080    1.229386
 C     -6.247761   -0.925399   -1.150529
 C     -8.113029   -0.690412    0.343873
 C     -7.612371   -0.802470   -0.946308
 C     -7.249364   -0.702010    1.431502
 H     -5.212292   -0.821390    2.076796
 H     -7.639495   -0.620495    2.441763
 H     -9.183638   -0.595658    0.503304
 H     -8.286725   -0.794457   -1.797722
 H     -5.855086   -1.006714   -2.157607
 C      5.222312   -2.761591   -0.131583
 C      5.084196   -0.440310    0.496298
 C      7.215187   -1.539705    0.418662
 C      6.457295   -0.398545    0.648097
 C      6.596997   -2.721099    0.030128
 H      4.738860   -3.685703   -0.426394
 H      7.187683   -3.615025   -0.148045
 H      8.294387   -1.507902    0.541642
 H      6.937173    0.528946    0.945493
 H      4.499606    0.448528    0.684725
