71

 Si     0.518048    1.104354    0.513215
 O     -0.542755    2.223794    0.015349
 C     -1.318055    3.232791    0.555024
 C     -2.665488    3.120509   -0.077108
 H     -1.410649    3.086385    1.631159
 C     -2.781955    3.250131   -1.450099
 C     -3.774868    2.773949    0.671794
 C     -3.991166    3.016363   -2.075923
 H     -1.911853    3.511474   -2.034416
 C     -4.990165    2.536048    0.052003
 H     -3.690878    2.675031    1.746463
 C     -5.099212    2.650766   -1.323343
 H     -4.071249    3.116728   -3.154013
 H     -5.853410    2.256390    0.647820
 H     -6.051001    2.463094   -1.811765
 C     -0.651572    4.563089    0.297894
 C      0.613463    4.702240    1.038037
 H     -1.317368    5.382478    0.594445
 H     -0.450116    4.657583   -0.769216
 C      1.637907    4.814301    1.654200
 H      2.542817    4.924429    2.201058
 Cl     0.363468    1.377453    2.500064
 Cl     2.105916    1.781718   -0.516521
 O     -0.252541    0.074448   -0.643080
 O      1.252494   -0.463865    0.977019
 C      0.247944   -2.125283   -0.750731
 C      1.649242   -1.747265   -0.855522
 C      3.395951   -0.754449    0.347350
 C     -1.903250   -1.383339   -0.198773
 C     -2.395347   -2.665982   -0.132689
 C     -0.200842   -3.437389   -0.755587
 C     -1.517882   -3.702588   -0.452894
 C      2.545318   -2.191639   -1.811151
 C      3.867313   -1.814049   -1.716228
 C      4.320984   -1.081496   -0.620501
 H      0.506964   -4.232951   -0.955326
 H     -1.871904   -4.726827   -0.422553
 H      2.182519   -2.794100   -2.635237
 H      4.568674   -2.096343   -2.492418
 C      5.708318   -0.608797   -0.512191
 C      3.727633   -0.284615    1.756881
 N     -0.619439   -1.146886   -0.501505
 N      2.094923   -0.994726    0.153115
 C     -2.674390   -0.100605    0.029806
 C     -3.787111   -2.930045    0.283374
 F     -3.920354   -0.329971    0.316184
 F     -2.595064    0.608445   -1.048719
 F     -2.089994    0.496430    1.032522
 F      5.010441   -0.444274    1.971960
 F      3.063823   -1.065010    2.573676
 F      3.399853    0.957038    1.934881
 C     -4.151660   -2.725281    1.606865
 C     -4.719751   -3.368473   -0.645041
 C     -6.397742   -3.382154    1.073291
 C     -6.028746   -3.590068   -0.248875
 C     -5.457768   -2.953190    2.001388
 H     -3.419705   -2.384534    2.328475
 H     -5.743531   -2.794920    3.037146
 H     -7.424234   -3.557587    1.383325
 H     -6.762638   -3.925901   -0.975756
 H     -4.431858   -3.523897   -1.678563
 C      6.775773   -1.490230   -0.609460
 C      5.932451    0.747304   -0.309754
 C      8.295750    0.339475   -0.278740
 C      7.225729    1.221144   -0.195215
 C      8.070585   -1.015289   -0.486095
 H      6.598265   -2.548611   -0.760732
 H      8.907001   -1.705180   -0.550404
 H      9.312456    0.710920   -0.183467
 H      7.399878    2.281682   -0.039721
 H      5.095613    1.429826   -0.246450
