71

 Si     0.385918    0.884637    1.426690
 O      0.237157    1.952942    0.248359
 C      0.203342    3.333412    0.080873
 C     -1.173551    3.614840   -0.427290
 H      0.351182    3.819655    1.046875
 C     -1.529116    3.224344   -1.706521
 C     -2.147181    4.083065    0.437865
 C     -2.847029    3.276485   -2.114868
 H     -0.774952    2.849120   -2.381011
 C     -3.470505    4.143992    0.032959
 H     -1.875797    4.386786    1.442130
 C     -3.823801    3.731275   -1.241185
 H     -3.115108    2.956368   -3.116439
 H     -4.228224    4.511266    0.718703
 H     -4.861627    3.770378   -1.558628
 C      1.308811    3.738855   -0.860336
 C      2.644381    3.663070   -0.249250
 H      1.150715    4.770556   -1.197455
 H      1.279946    3.090688   -1.735484
 C      3.737622    3.620799    0.244052
 H      4.707039    3.593729    0.678300
 Cl    -1.189732    0.514039    2.623118
 Cl     1.484127    1.979175    2.735803
 O     -0.098193   -0.216757    0.110720
 O      1.436739   -0.446757    1.726966
 C     -0.405989   -2.303694    0.926351
 C      1.026394   -2.462156    0.727327
 C      3.011037   -1.277882    0.365968
 C     -2.202264   -0.954134    0.243785
 C     -3.131143   -1.827198    0.764464
 C     -1.294096   -3.258148    1.394130
 C     -2.646715   -2.999859    1.345207
 C      1.587190   -3.577180    0.115159
 C      2.893557   -3.537194   -0.311450
 C      3.634519   -2.355331   -0.218078
 H     -0.905062   -4.174857    1.821112
 H     -3.348397   -3.712656    1.762308
 H      0.970702   -4.455234   -0.034977
 H      3.343016   -4.412441   -0.765825
 C      5.022380   -2.255551   -0.694797
 C      3.491105    0.159305    0.326942
 N     -0.895417   -1.169364    0.413189
 N      1.793456   -1.390009    0.914393
 C     -2.500890    0.292035   -0.571008
 C     -4.559483   -1.477388    0.770665
 F     -3.730877    0.254866   -1.010632
 F     -1.688093    0.315337   -1.589019
 F     -2.327245    1.332068    0.174770
 F      2.434714    0.866440    0.005951
 F      4.395559    0.309171   -0.598306
 F      3.954139    0.508234    1.487220
 C     -4.947035   -0.281176    1.361028
 C     -5.504697   -2.318803    0.201663
 C     -7.228116   -0.752603    0.789100
 C     -6.840165   -1.951658    0.205747
 C     -6.280867    0.080138    1.371122
 H     -4.206391    0.363840    1.813074
 H     -6.583010    1.014196    1.835171
 H     -8.276440   -0.466744    0.793125
 H     -7.580566   -2.603825   -0.248316
 H     -5.199234   -3.250222   -0.260958
 C      6.006323   -1.784546    0.165890
 C      5.346883   -2.622646   -1.994334
 C      7.635249   -2.025061   -1.579018
 C      6.652827   -2.500758   -2.437846
 C      7.311553   -1.671644   -0.275433
 H      5.756811   -1.511293    1.182110
 H      8.079452   -1.307195    0.400500
 H      8.660362   -1.931498   -1.927156
 H      6.904294   -2.777337   -3.457638
 H      4.578508   -2.984304   -2.667627
