71

 Si     0.667153    1.720557   -0.275142
 O     -0.808777    1.446479    0.310226
 C     -1.594559    2.031396    1.289948
 C     -2.843012    2.479478    0.604220
 H     -1.065150    2.894828    1.696696
 C     -2.675566    3.280192   -0.515504
 C     -4.114496    2.083304    0.971409
 C     -3.758472    3.646531   -1.286258
 H     -1.682872    3.603199   -0.788426
 C     -5.209339    2.454356    0.206130
 H     -4.269528    1.482454    1.855549
 C     -5.032972    3.225098   -0.929559
 H     -3.611197    4.263703   -2.167099
 H     -6.204413    2.136233    0.501178
 H     -5.889392    3.509108   -1.534155
 C     -1.778327    1.022209    2.392552
 C     -0.486517    0.517096    2.877298
 H     -2.318238    1.469432    3.234696
 H     -2.366526    0.181787    2.036238
 C      0.567788    0.099040    3.268955
 H      1.498627   -0.251421    3.641336
 Cl     1.126273    2.447967   -2.086121
 Cl     1.152103    3.366252    0.814446
 O      1.757590    0.794750    0.653468
 O      0.425675    0.159495   -1.124637
 C      1.843943   -1.437350    0.227781
 C      0.397222   -1.497110    0.375577
 C     -1.597256   -0.728269   -0.575649
 C      3.746155   -0.079374    0.057763
 C      4.539983   -1.138424   -0.323885
 C      2.610721   -2.553276   -0.069664
 C      3.947605   -2.400319   -0.356851
 C     -0.292384   -2.383460    1.175642
 C     -1.667022   -2.425523    1.084967
 C     -2.341158   -1.621330    0.174044
 H      2.127013   -3.521181   -0.118853
 H      4.544020   -3.260084   -0.639550
 H      0.255936   -3.026013    1.853605
 H     -2.230081   -3.116044    1.701813
 C     -3.807427   -1.710880    0.029035
 C     -2.241743    0.132266   -1.648794
 N      2.432597   -0.243130    0.277407
 N     -0.273574   -0.683416   -0.443942
 C      4.232902    1.328741    0.357987
 C      5.946757   -0.947224   -0.720539
 F      3.887819    1.612864    1.583652
 F      3.668081    2.132812   -0.497287
 F      5.531980    1.400728    0.251822
 F     -3.411904    0.513089   -1.220948
 F     -2.375955   -0.648436   -2.702743
 F     -1.547299    1.164971   -1.971515
 C      6.237683   -0.156730   -1.824597
 C      6.966383   -1.561858   -0.007785
 C      8.577047   -0.572623   -1.489102
 C      8.283693   -1.367841   -0.389251
 C      7.552877    0.028822   -2.209113
 H      5.439754    0.313931   -2.384493
 H      7.779804    0.645384   -3.073856
 H      9.610595   -0.422562   -1.788967
 H      9.083627   -1.839291    0.174266
 H      6.736772   -2.176697    0.854891
 C     -4.372606   -2.127411   -1.166695
 C     -4.619039   -1.367958    1.101060
 C     -6.562307   -1.803420   -0.237576
 C     -5.995952   -1.407145    0.966253
 C     -5.748561   -2.171376   -1.300028
 H     -3.744634   -2.420747   -1.994339
 H     -6.187104   -2.496942   -2.238707
 H     -7.643042   -1.834640   -0.345160
 H     -6.628334   -1.129046    1.804326
 H     -4.179440   -1.059998    2.040554
