71

 Si    -0.359251    0.890215    1.884370
 O     -0.158426    2.155330    0.937876
 C      0.582116    3.170175    0.386077
 C      1.633913    2.562836   -0.492879
 H      1.061291    3.747137    1.183253
 C      1.290503    1.488266   -1.292898
 C      2.950311    2.984377   -0.445215
 C      2.255711    0.808351   -2.007197
 H      0.266794    1.172478   -1.321980
 C      3.921779    2.318883   -1.176347
 H      3.227041    3.824476    0.181622
 C      3.579116    1.223358   -1.949343
 H      1.973825   -0.037846   -2.625737
 H      4.954016    2.651842   -1.127983
 H      4.343018    0.696363   -2.511712
 C     -0.368465    4.054797   -0.381617
 C     -1.417196    4.594040    0.494128
 H      0.174625    4.887586   -0.845509
 H     -0.828596    3.469463   -1.175141
 C     -2.266776    5.020301    1.226836
 H     -3.018396    5.421812    1.863427
 Cl     0.556975    1.569054    3.559966
 Cl    -2.186101    0.578324    2.665541
 O     -0.743961    0.154032    0.286490
 O      0.434979   -0.629718    2.043277
 C     -1.353571   -2.003260    0.533282
 C      0.076999   -2.266092    0.493081
 C      2.196655   -1.340164    0.834294
 C     -2.893994   -0.332007   -0.054228
 C     -3.965752   -1.181541    0.106227
 C     -2.381604   -2.925958    0.637435
 C     -3.681137   -2.501232    0.464421
 C      0.634665   -3.237905   -0.325332
 C      1.995526   -3.264219   -0.523219
 C      2.812139   -2.291254    0.053650
 H     -2.146362   -3.954909    0.882885
 H     -4.499218   -3.199022    0.599367
 H     -0.022090   -3.948331   -0.812692
 H      2.439566   -4.029884   -1.148755
 C      4.271922   -2.286124   -0.136023
 C      2.877737   -0.126583    1.427404
 N     -1.658027   -0.737006    0.246078
 N      0.882901   -1.388181    1.091133
 C     -2.909056    1.052219   -0.676608
 C     -5.342956   -0.684070   -0.025743
 F     -4.074374    1.288190   -1.217101
 F     -1.994322    1.047010   -1.620473
 F     -2.622071    1.957010    0.200728
 F      2.063417    0.874265    1.247492
 F      3.986595    0.127640    0.800189
 F      3.095175   -0.332555    2.692764
 C     -5.733091    0.406303    0.741925
 C     -6.242603   -1.291945   -0.890245
 C     -7.919688    0.298803   -0.238317
 C     -7.530294   -0.794364   -1.001263
 C     -7.021401    0.895872    0.637013
 H     -5.030870    0.867304    1.423636
 H     -7.326221    1.745796    1.240277
 H     -8.931301    0.686157   -0.324006
 H     -8.232403   -1.261772   -1.685576
 H     -5.935299   -2.140527   -1.490504
 C      5.107687   -2.346834    0.971305
 C      4.805938   -2.208486   -1.414492
 C      7.016401   -2.223725   -0.477316
 C      6.179651   -2.170667   -1.584237
 C      6.479198   -2.316804    0.800074
 H      4.690627   -2.419347    1.966648
 H      7.131644   -2.366286    1.666827
 H      8.094395   -2.195846   -0.611053
 H      6.598411   -2.098950   -2.583867
 H      4.151614   -2.156651   -2.276388
