71

 Si     0.932488    1.565839   -0.389284
 O     -0.605603    1.567451    0.090897
 C     -1.365760    2.365476    0.930179
 C     -2.475517    2.908354    0.091564
 H     -0.743380    3.184151    1.295802
 C     -2.103444    3.545641   -1.082274
 C     -3.816873    2.742269    0.377929
 C     -3.056115    3.973766   -1.982548
 H     -1.055363    3.690356   -1.294014
 C     -4.780874    3.177976   -0.517865
 H     -4.128273    2.272477    1.299372
 C     -4.403215    3.782361   -1.704217
 H     -2.749617    4.460556   -2.903179
 H     -5.832390    3.041640   -0.285128
 H     -5.157977    4.116958   -2.409930
 C     -1.784236    1.524022    2.107028
 C     -0.624491    0.895787    2.754281
 H     -2.311354    2.136550    2.847063
 H     -2.466068    0.742762    1.784549
 C      0.324103    0.379287    3.276891
 H      1.162523   -0.055577    3.762554
 Cl     1.621929    2.015543   -2.217254
 Cl     1.577470    3.237530    0.569522
 O      1.800901    0.603896    0.719815
 O      0.522962   -0.030966   -1.097129
 C      1.586057   -1.651649    0.525412
 C      0.139621   -1.491694    0.550444
 C     -1.644132   -0.557542   -0.640685
 C      3.676591   -0.600866    0.395984
 C      4.330437   -1.796463    0.196531
 C      2.198071   -2.889861    0.407793
 C      3.560992   -2.958613    0.231460
 C     -0.730179   -2.179487    1.370057
 C     -2.085586   -2.035646    1.165780
 C     -2.564932   -1.248140    0.126040
 H      1.580697   -3.779840    0.409962
 H      4.042703   -3.919488    0.091481
 H     -0.333871   -2.817023    2.150857
 H     -2.788568   -2.567141    1.796418
 C     -4.013705   -1.146151   -0.137793
 C     -2.073788    0.258942   -1.847384
 N      2.340518   -0.553541    0.511264
 N     -0.341482   -0.685978   -0.399737
 C      4.343303    0.751398    0.588595
 C      5.777950   -1.849327   -0.079285
 F      3.959624    1.219819    1.744124
 F      3.963110    1.521096   -0.391018
 F      5.642897    0.629241    0.585856
 F     -3.202592    0.845283   -1.564661
 F     -2.245669   -0.608013   -2.825468
 F     -1.212291    1.142233   -2.208485
 C      6.268537   -1.261543   -1.237659
 C      6.636765   -2.487787    0.803750
 C      8.489078   -1.928482   -0.618719
 C      7.995360   -2.520911    0.535941
 C      7.624248   -1.302699   -1.507247
 H      5.594678   -0.771358   -1.928748
 H      8.007707   -0.844281   -2.414031
 H      9.554746   -1.956472   -0.828950
 H      8.670529   -3.010879    1.231493
 H      6.251015   -2.944293    1.708054
 C     -4.546203   -1.611217   -1.330739
 C     -4.840596   -0.572130    0.817178
 C     -6.724085   -0.876152   -0.638261
 C     -6.194165   -0.430539    0.564821
 C     -5.899419   -1.474037   -1.581168
 H     -3.910376   -2.081863   -2.065357
 H     -6.312003   -1.838345   -2.517376
 H     -7.786366   -0.765734   -0.837964
 H     -6.836939    0.027713    1.310781
 H     -4.430115   -0.224641    1.756034
