71

 Si    -0.031178    0.658490    1.751934
 O      0.041086    1.991152    0.865860
 C     -0.232905    2.446193   -0.406145
 C     -0.995635    3.722311   -0.284430
 H     -0.834417    1.736109   -0.943159
 C     -0.614944    4.648269    0.673107
 C     -2.092174    3.976170   -1.093189
 C     -1.328267    5.824446    0.829012
 H      0.234053    4.432481    1.306494
 C     -2.807399    5.155515   -0.944754
 H     -2.390222    3.255598   -1.844899
 C     -2.427315    6.080093    0.017095
 H     -1.027035    6.543534    1.585159
 H     -3.665218    5.351202   -1.581907
 H     -2.988086    7.003039    0.135853
 C      1.061119    2.592518   -1.167829
 C      1.538638    1.291519   -1.658673
 H      0.911760    3.230697   -2.046431
 H      1.810920    3.061510   -0.535291
 C      1.878167    0.229612   -2.104055
 H      2.189978   -0.679684   -2.548380
 Cl    -1.685674   -0.038932    2.670061
 Cl     0.804124    1.503644    3.397952
 O     -0.397311   -0.123743    0.182344
 O      1.114357   -0.613211    1.821297
 C     -0.416258   -2.367839    0.423281
 C      1.028404   -2.287637    0.271519
 C      2.937654   -0.966502    0.558423
 C     -2.387828   -1.145545    0.077877
 C     -3.181737   -2.241733    0.328971
 C     -1.158312   -3.522817    0.611649
 C     -2.533329   -3.447023    0.602076
 C      1.743373   -3.137672   -0.559404
 C      3.082893   -2.911971   -0.775907
 C      3.711574   -1.799862   -0.216234
 H     -0.641551   -4.456466    0.798607
 H     -3.125248   -4.331789    0.804581
 H      1.226623   -3.966600   -1.027524
 H      3.654334   -3.588882   -1.400500
 C      5.145903   -1.534067   -0.415763
 C      3.392915    0.365447    1.121018
 N     -1.058817   -1.218759    0.211130
 N      1.662778   -1.264021    0.842799
 C     -2.834864    0.174049   -0.520378
 C     -4.646399   -2.116124    0.375520
 F     -2.130697    0.314720   -1.623401
 F     -2.596991    1.167573    0.278359
 F     -4.101830    0.135383   -0.827132
 F      2.411868    1.208233    0.959891
 F      4.431373    0.799396    0.463025
 F      3.677599    0.212654    2.382836
 C     -5.207872   -1.194034    1.249853
 C     -5.456311   -2.907054   -0.427035
 C     -7.394699   -1.834354    0.500561
 C     -6.832255   -2.759952   -0.368673
 C     -6.581623   -1.054724    1.313394
 H     -4.570150   -0.589607    1.881423
 H     -7.019771   -0.335752    1.999263
 H     -8.474458   -1.721656    0.546935
 H     -7.467669   -3.370190   -1.003953
 H     -5.015669   -3.623910   -1.110296
 C      5.984865   -1.456558    0.688233
 C      5.651847   -1.356941   -1.695813
 C      7.837274   -1.000163   -0.766962
 C      6.998099   -1.083359   -1.870244
 C      7.330327   -1.191547    0.511822
 H      5.590906   -1.605027    1.684681
 H      7.986216   -1.134896    1.375531
 H      8.893914   -0.787579   -0.904806
 H      7.392856   -0.933247   -2.870900
 H      4.994320   -1.410126   -2.555360
