71

 Si    -0.540258    2.084766    0.590930
 O      0.951192    1.870165    0.026196
 C      1.658776    2.407183   -1.032760
 C      1.790550    1.295240   -2.031713
 H      1.072262    3.207421   -1.486198
 C      0.611393    0.835864   -2.605007
 C      2.985284    0.681998   -2.361354
 C      0.623427   -0.221062   -3.495180
 H     -0.317037    1.321133   -2.347555
 C      3.006191   -0.379022   -3.257952
 H      3.914639    1.029578   -1.931765
 C      1.826947   -0.834102   -3.825581
 H     -0.305556   -0.562532   -3.942613
 H      3.952625   -0.847775   -3.512576
 H      1.844029   -1.662116   -4.528916
 C      2.928898    3.003359   -0.495677
 C      2.619989    4.050963    0.484544
 H      3.530272    3.429360   -1.307223
 H      3.520490    2.237812   -0.004316
 C      2.335149    4.891038    1.292009
 H      2.095342    5.646232    2.002320
 Cl    -1.008430    2.783314    2.407028
 Cl    -1.113459    3.696757   -0.506407
 O     -1.533230    1.107371   -0.404301
 O     -0.260128    0.522350    1.425861
 C     -1.461195   -1.143749   -0.109237
 C     -0.006705   -1.095038   -0.111250
 C      1.820971   -0.313435    1.129050
 C     -3.472365    0.051380    0.034375
 C     -4.206407   -1.092351    0.249531
 C     -2.157379   -2.334304    0.040866
 C     -3.520732   -2.306178    0.221946
 C      0.817951   -1.946007   -0.824293
 C      2.165083   -1.938669   -0.560305
 C      2.693698   -1.135978    0.450890
 H     -1.603133   -3.264466    0.057382
 H     -4.067653   -3.229522    0.375140
 H      0.386505   -2.598425   -1.571884
 H      2.827921   -2.588607   -1.116591
 C      4.128443   -1.232683    0.786725
 C      2.127110    0.459246    2.401558
 N     -2.139529    0.001727   -0.119333
 N      0.525722   -0.281566    0.797317
 C     -4.036742    1.453111   -0.120345
 C     -5.656457   -1.043172    0.521733
 F     -3.727643    1.876542   -1.314489
 F     -3.493319    2.193932    0.805686
 F     -5.333871    1.450004    0.016378
 F      1.977743    1.730755    2.201040
 F      3.352440    0.215541    2.789452
 F      1.292539    0.032261    3.314155
 C     -6.104166   -0.523402    1.728396
 C     -6.558413   -1.511042   -0.422359
 C     -8.369157   -0.920200    1.040531
 C     -7.917684   -1.443859   -0.163389
 C     -7.461583   -0.463734    1.987586
 H     -5.396286   -0.161707    2.463781
 H     -7.812736   -0.058241    2.931927
 H     -9.435400   -0.868877    1.243175
 H     -8.626292   -1.801466   -0.904832
 H     -6.204866   -1.913625   -1.364694
 C      4.637749   -2.455306    1.205994
 C      4.966913   -0.133842    0.681004
 C      6.815522   -1.468525    1.428862
 C      6.307874   -0.249773    0.998996
 C      5.978577   -2.571275    1.532825
 H      3.985053   -3.315743    1.294972
 H      6.370479   -3.526549    1.870038
 H      7.867971   -1.559230    1.683110
 H      6.958468    0.615443    0.912076
 H      4.575623    0.815307    0.354709
