71

 Si    -0.447754    1.000638    1.877256
 O     -0.192203    2.334683    1.024946
 C     -0.228335    2.777710   -0.287485
 C      1.052707    2.356901   -0.933419
 H     -1.038615    2.303241   -0.814851
 C      2.216905    3.086863   -0.775089
 C      1.098876    1.149128   -1.607766
 C      3.416360    2.614631   -1.275694
 H      2.195567    4.026911   -0.242848
 C      2.295574    0.666801   -2.105187
 H      0.190465    0.588953   -1.747475
 C      3.459327    1.399599   -1.938645
 H      4.322615    3.195853   -1.140079
 H      2.315439   -0.273579   -2.645314
 H      4.400797    1.029402   -2.329087
 C     -0.479054    4.259947   -0.252688
 C     -1.811157    4.554442    0.296093
 H     -0.408759    4.687170   -1.260564
 H      0.271565    4.738539    0.375985
 C     -2.900687    4.785811    0.743034
 H     -3.864049    5.011840    1.132523
 Cl     0.391244    1.710563    3.581409
 Cl    -2.206630    0.456490    2.699842
 O     -0.829818    0.287209    0.276840
 O      0.565149   -0.382281    1.949099
 C     -1.065559   -1.949862    0.451266
 C      0.384204   -1.998422    0.348192
 C      2.404335   -0.895629    0.764427
 C     -2.898114   -0.543355    0.056558
 C     -3.800556   -1.566115    0.240826
 C     -1.917511   -3.035711    0.575089
 C     -3.278205   -2.832049    0.510866
 C      1.042363   -2.881604   -0.495663
 C      2.404074   -2.785288   -0.654499
 C      3.122606   -1.776264   -0.011895
 H     -1.497032   -4.018075    0.753629
 H     -3.957154   -3.662963    0.662197
 H      0.463792   -3.633847   -1.017778
 H      2.928206   -3.490700   -1.288588
 C      4.586806   -1.683214   -0.123040
 C      2.961731    0.353796    1.413441
 N     -1.590454   -0.741687    0.250945
 N      1.091322   -1.061378    0.978149
 C     -3.182124    0.820674   -0.539872
 C     -5.247524   -1.304697    0.219457
 F     -4.429051    0.913115   -0.908103
 F     -2.410482    0.900029   -1.605167
 F     -2.881088    1.771170    0.285715
 F      2.090322    1.297643    1.213165
 F      4.085850    0.693179    0.852999
 F      3.131684    0.128851    2.684532
 C     -5.763059   -0.344966    1.081592
 C     -6.087468   -2.006577   -0.633660
 C     -7.960829   -0.769099    0.219259
 C     -7.444989   -1.732290   -0.638022
 C     -7.119502   -0.078974    1.082670
 H     -5.103713    0.188820    1.753371
 H     -7.522150    0.668694    1.759542
 H     -9.026491   -0.556713    0.216528
 H     -8.102574   -2.272288   -1.313085
 H     -5.682478   -2.752666   -1.307626
 C      5.361304   -1.676918    1.029971
 C      5.191062   -1.618268   -1.370986
 C      7.342329   -1.498801   -0.311721
 C      6.568686   -1.517568   -1.464874
 C      6.737364   -1.584924    0.935426
 H      4.893372   -1.747490    2.002063
 H      7.340330   -1.582317    1.838627
 H      8.423749   -1.422428   -0.385546
 H      7.040061   -1.455129   -2.441446
 H      4.587031   -1.625159   -2.269765
