77

 Si    -0.715204    1.030538    0.109699
 O     -0.324695    2.222890    1.129489
 C      0.048019    3.520739    1.367693
 C     -0.859008    4.464631    0.638054
 H      1.069314    3.679380    1.028052
 C     -2.230790    4.291495    0.739971
 C     -0.354954    5.484866   -0.150255
 C     -3.096249    5.122428    0.053933
 H     -2.615136    3.487945    1.351249
 C     -1.218708    6.326893   -0.838142
 H      0.716745    5.627363   -0.232633
 C     -2.589138    6.145604   -0.739516
 H     -4.168860    4.974978    0.137250
 H     -0.816419    7.125885   -1.454402
 H     -3.265696    6.802444   -1.278826
 C     -0.013864    3.732309    2.861790
 C      0.829540    2.780123    3.598986
 H      0.294602    4.752659    3.120921
 H     -1.045723    3.601306    3.189563
 C      1.509200    2.004393    4.213567
 H      2.113917    1.341786    4.783012
 Cl    -2.308625    0.400935    1.165863
 Cl    -1.034511    2.101833   -1.556656
 O     -0.644851   -0.374414   -0.999315
 O      0.624885    0.202166    0.817830
 C     -0.126642   -2.209695    0.234677
 C      1.246909   -1.798009   -0.018550
 C      2.643453    0.081433   -0.155573
 C     -2.269968   -1.896445   -0.663941
 C     -2.789250   -2.920426    0.104175
 C     -0.564376   -3.266344    1.014786
 C     -1.917251   -3.577199    0.958111
 C      2.206010   -2.594443   -0.642045
 C      3.401671   -1.990879   -0.994723
 C      3.637136   -0.638497   -0.779140
 H     -2.304301   -4.362552    1.594496
 H      4.160947   -2.573971   -1.500147
 C      4.879744    0.012558   -1.243244
 C      2.652371    1.560743    0.150692
 N     -1.009624   -1.507900   -0.488121
 N      1.498075   -0.508893    0.197672
 C     -2.968215   -1.220966   -1.832829
 C     -4.229883   -3.216429    0.074148
 F     -4.010994   -1.937234   -2.178630
 F     -2.115230   -1.212806   -2.828120
 F     -3.338434   -0.015106   -1.531823
 F      3.781169    2.111769   -0.194526
 F      2.441464    1.737196    1.416895
 F      1.673845    2.077598   -0.551078
 C     -5.126217   -2.182530    0.312365
 C     -4.690670   -4.499237   -0.184370
 C     -6.950688   -3.710082    0.009472
 C     -6.053358   -4.744147   -0.222762
 C     -6.485757   -2.429738    0.281458
 H     -4.758652   -1.187951    0.525350
 H     -7.185414   -1.620886    0.469830
 H     -8.019483   -3.903703   -0.019414
 H     -6.416072   -5.745502   -0.435856
 H     -3.989322   -5.303160   -0.375020
 C      6.058630   -0.151124   -0.531790
 C      4.848353    0.797748   -2.386967
 C      7.184088    1.274248   -2.103748
 C      6.002511    1.427951   -2.817285
 C      7.212055    0.484828   -0.962171
 H      6.077608   -0.762865    0.362949
 H      8.135360    0.363416   -0.403134
 H      8.089246    1.771767   -2.440880
 H      5.979499    2.042372   -3.712563
 H      3.924521    0.923310   -2.938259
 C      0.360195   -4.003139    1.941441
 H      0.448414   -5.050678    1.645941
 H      1.348522   -3.555143    1.962724
 H     -0.050175   -3.974760    2.952576
 C      1.939281   -4.035619   -0.970497
 H      2.598548   -4.360716   -1.773163
 H      2.127282   -4.666453   -0.099891
 H      0.909277   -4.182885   -1.286674
