77

 Si    -0.706083    1.972562    1.088037
 O      0.868225    1.983199    0.755332
 C      1.713951    2.863328    0.106204
 C      2.091945    2.185990   -1.177431
 H      1.163473    3.772585   -0.138927
 C      1.052082    1.915432   -2.058998
 C      3.375599    1.792894   -1.505901
 C      1.291502    1.265769   -3.253561
 H      0.053430    2.231766   -1.801096
 C      3.623085    1.129948   -2.701802
 H      4.199888    2.006964   -0.840594
 C      2.583607    0.865626   -3.577887
 H      0.471064    1.077625   -3.939476
 H      4.637190    0.828051   -2.948212
 H      2.779534    0.357868   -4.518239
 C      2.824430    3.232554    1.048022
 C      2.274905    3.887402    2.240925
 H      3.535351    3.909291    0.559909
 H      3.364308    2.344670    1.360033
 C      1.793354    4.406687    3.209083
 H      1.380203    4.879152    4.068345
 Cl    -1.577269    2.080324    2.890050
 Cl    -1.193622    3.830571    0.415187
 O     -1.460515    1.291796   -0.290315
 O     -0.417561    0.254770    1.523735
 C     -1.427988   -0.968481   -0.405081
 C      0.024391   -0.856581   -0.366520
 C      1.721636   -0.394017    1.187937
 C     -3.446680    0.222215   -0.264167
 C     -4.184350   -0.940001   -0.195015
 C     -2.107507   -2.184063   -0.373341
 C     -3.486726   -2.138676   -0.259945
 C      0.931514   -1.371425   -1.278197
 C      2.262491   -1.372977   -0.895256
 C      2.680173   -0.941012    0.356761
 H     -4.042537   -3.064726   -0.188861
 H      3.002889   -1.768795   -1.576562
 C      4.087644   -1.133011    0.764665
 C      1.870349   -0.071368    2.663843
 N     -2.111318    0.170850   -0.301862
 N      0.459595   -0.319939    0.773394
 C     -4.017529    1.625201   -0.354169
 C     -5.644466   -0.914301    0.007499
 F     -3.463375    2.225493   -1.371396
 F     -3.748164    2.234036    0.765699
 F     -5.310155    1.578356   -0.541374
 F      1.562843    1.162288    2.905670
 F      3.096712   -0.303744    3.054874
 F      1.049611   -0.878892    3.293816
 C     -6.155213   -0.348975    1.168399
 C     -6.496118   -1.452134   -0.946229
 C     -8.379291   -0.838527    0.412020
 C     -7.866086   -1.408139   -0.745531
 C     -7.522595   -0.312838    1.370638
 H     -5.487425    0.063597    1.913687
 H     -7.921548    0.127671    2.279602
 H     -9.453875   -0.806048    0.569550
 H     -8.534826   -1.819797   -1.495886
 H     -6.094527   -1.889643   -1.852960
 C      4.599141   -2.424994    0.790714
 C      4.900243   -0.064029    1.107933
 C      6.722411   -1.571526    1.517451
 C      6.214376   -0.279908    1.481479
 C      5.912269   -2.644729    1.172526
 H      3.967491   -3.265641    0.529252
 H      6.303185   -3.657760    1.200416
 H      7.753490   -1.741792    1.814723
 H      6.843931    0.564405    1.746501
 H      4.510317    0.939316    1.087449
 C     -1.383548   -3.499666   -0.392988
 H     -1.230858   -3.834091   -1.420834
 H     -0.416464   -3.428633    0.096424
 H     -1.977832   -4.252981    0.121535
 C      0.500732   -1.922329   -2.605567
 H      1.176447   -1.566746   -3.380604
 H      0.544512   -3.013568   -2.597225
 H     -0.509470   -1.613751   -2.857312
