77

 Si    -0.329730    1.069387    1.568824
 O      1.260677    1.133216    1.309699
 C      2.195720    2.088449    0.927808
 C      1.723405    2.736403   -0.341496
 H      3.097440    1.512993    0.711429
 C      1.243216    1.896576   -1.332691
 C      1.709214    4.102721   -0.557622
 C      0.720432    2.397812   -2.506958
 H      1.274080    0.842080   -1.167169
 C      1.198070    4.618417   -1.740421
 H      2.085263    4.780742    0.196384
 C      0.692989    3.770795   -2.713236
 H      0.339045    1.723691   -3.266918
 H      1.190114    5.693372   -1.895976
 H      0.285331    4.178364   -3.633746
 C      2.497566    3.029318    2.062392
 C      2.771053    2.309958    3.311199
 H      3.368069    3.645116    1.808716
 H      1.650279    3.690935    2.231709
 C      2.977500    1.737464    4.344706
 H      3.165136    1.237959    5.264302
 Cl    -1.295335    0.618054    3.270393
 Cl    -0.732235    3.058577    1.549956
 O     -1.106061    0.877487    0.054314
 O     -0.113293   -0.702285    1.446384
 C     -1.369673   -1.281601   -0.583745
 C      0.082037   -1.302171   -0.688713
 C      1.981473   -1.131663    0.669245
 C     -3.214898    0.062986   -0.054337
 C     -4.078158   -1.008590   -0.148649
 C     -2.183658   -2.397286   -0.750779
 C     -3.536055   -2.237039   -0.505272
 C      0.836666   -1.546068   -1.817683
 C      2.220103   -1.563674   -1.651531
 C      2.807297   -1.384952   -0.416168
 H     -4.194169   -3.093670   -0.570342
 H      2.854622   -1.732764   -2.512640
 C      4.273990   -1.387187   -0.239274
 C      2.555048   -1.026700    2.069844
 N     -1.898169   -0.123190   -0.186767
 N      0.674700   -1.054929    0.489057
 C     -3.649530    1.504005    0.147318
 C     -5.505666   -0.864624    0.183510
 F     -2.965311    2.261733   -0.662991
 F     -3.442102    1.820610    1.392373
 F     -4.921732    1.620286   -0.142109
 F      3.571943   -0.210360    2.030685
 F      2.981213   -2.240483    2.371319
 F      1.696912   -0.651362    2.951812
 C     -5.860665   -0.402254    1.443992
 C     -6.482912   -1.185139   -0.747819
 C     -8.176196   -0.556675    0.834739
 C     -7.819633   -1.024757   -0.423082
 C     -7.195672   -0.250147    1.769367
 H     -5.096974   -0.161870    2.171421
 H     -7.472110    0.109450    2.756093
 H     -9.225190   -0.432427    1.089289
 H     -8.585408   -1.265222   -1.154811
 H     -6.203176   -1.541554   -1.732357
 C      4.919099   -2.479979    0.315853
 C      4.991161   -0.256940   -0.605318
 C      7.006831   -1.301748    0.172827
 C      6.358338   -0.212866   -0.395398
 C      6.287597   -2.435793    0.522438
 H      4.359281   -3.362972    0.592072
 H      6.793452   -3.291859    0.959188
 H      8.079911   -1.267229    0.339526
 H      6.919598    0.673643   -0.675895
 H      4.482405    0.592771   -1.043384
 C     -1.599829   -3.733366   -1.110676
 H     -1.316894   -3.757389   -2.163758
 H     -0.715007   -3.942566   -0.511499
 H     -2.331394   -4.519515   -0.936218
 C      0.217206   -1.732770   -3.172729
 H      0.734908   -1.102429   -3.897062
 H      0.321957   -2.770197   -3.498893
 H     -0.835512   -1.467108   -3.174051
