77

 Si    -0.177304    1.562782    1.985105
 O      0.505815    1.801593    0.574349
 C      0.163462    2.521844   -0.582317
 C      0.874082    1.886839   -1.726992
 H     -0.910627    2.444965   -0.735743
 C      2.165818    1.431834   -1.540680
 C      0.250948    1.710862   -2.951361
 C      2.828562    0.766250   -2.557080
 H      2.643105    1.607216   -0.592250
 C      0.908595    1.049000   -3.973639
 H     -0.757826    2.069512   -3.102268
 C      2.194929    0.567165   -3.775836
 H      3.843317    0.414146   -2.407632
 H      0.413543    0.907392   -4.929851
 H      2.711093    0.049502   -4.579672
 C      0.546002    3.971383   -0.389384
 C     -0.304776    4.627457    0.618405
 H      0.439638    4.508525   -1.338837
 H      1.591712    4.026902   -0.081044
 C     -1.025350    5.140036    1.430643
 H     -1.654972    5.596506    2.156851
 Cl     0.370962    2.623966    3.559807
 Cl    -2.159728    1.524429    1.928810
 O     -0.830751   -0.098143   -1.266888
 O      0.384010    0.004205    2.263900
 C     -1.042693   -1.340148    0.559517
 C      0.404328   -1.374321    0.458577
 C      2.413912   -0.536601    1.345677
 C     -2.931085   -0.458353   -0.505085
 C     -3.746660   -0.986038    0.478466
 C     -1.808625   -1.929614    1.551510
 C     -3.179053   -1.749294    1.488677
 C      1.094749   -2.063890   -0.535266
 C      2.467109   -1.945826   -0.550994
 C      3.157013   -1.177740    0.385900
 H     -3.817251   -2.169168    2.252609
 H      3.035840   -2.454970   -1.317925
 C      4.628531   -1.062563    0.317875
 C      2.978573    0.335891    2.441871
 N     -1.585651   -0.611668   -0.446534
 N      1.073196   -0.621778    1.323386
 C     -3.369303    0.360559   -1.689807
 C     -5.193154   -0.690240    0.490915
 F     -4.676061    0.391742   -1.787150
 F     -2.877236   -0.157301   -2.790776
 F     -2.919373    1.592527   -1.539794
 F      2.681461    1.570935    2.103428
 F      4.268652    0.199079    2.542151
 F      2.423278    0.030280    3.581834
 C     -5.613380    0.604725    0.760251
 C     -6.120058   -1.689802    0.242304
 C     -7.895239   -0.093287    0.509861
 C     -7.473183   -1.388646    0.246055
 C     -6.963354    0.903155    0.771203
 H     -4.884242    1.379047    0.955768
 H     -7.290404    1.916789    0.983047
 H     -8.955958    0.141535    0.514340
 H     -8.199781   -2.169978    0.042680
 H     -5.788592   -2.700143    0.032485
 C      5.411014   -2.191538    0.515719
 C      5.224623    0.161098    0.047999
 C      7.388396   -0.867519    0.193364
 C      6.602598    0.258365   -0.015631
 C      6.791813   -2.092373    0.459135
 H      4.945701   -3.147074    0.728533
 H      7.402945   -2.975204    0.623286
 H      8.471138   -0.789653    0.147080
 H      7.065269    1.217377   -0.229341
 H      4.616380    1.038547   -0.112787
 C     -1.138437   -2.696105    2.649372
 H     -0.495336   -3.474552    2.236587
 H     -0.523009   -2.023005    3.244292
 H     -1.875100   -3.162619    3.299095
 C      0.343406   -2.862216   -1.554077
 H     -0.123381   -2.179781   -2.262757
 H      1.016798   -3.526475   -2.091616
 H     -0.435388   -3.458336   -1.081704
