77

 Si     0.595985    2.225163   -0.503500
 O     -0.949785    2.081599   -0.079760
 C     -1.760734    2.705250    0.849750
 C     -2.030931    1.675144    1.905867
 H     -1.211046    3.527588    1.309790
 C     -0.923645    1.199862    2.598469
 C     -3.280498    1.159831    2.194446
 C     -1.062772    0.226770    3.568035
 H      0.048030    1.611860    2.375299
 C     -3.427280    0.172776    3.161451
 H     -4.155790    1.527852    1.678391
 C     -2.320797   -0.295272    3.850298
 H     -0.190231   -0.120929    4.112818
 H     -4.415417   -0.222958    3.378857
 H     -2.437696   -1.058738    4.614443
 C     -2.944489    3.286137    0.129636
 C     -2.496751    4.279818   -0.853038
 H     -3.631178    3.762653    0.838825
 H     -3.487974    2.505349   -0.392206
 C     -2.097620    5.076009   -1.656564
 H     -1.757929    5.793153   -2.365470
 Cl     1.336898    2.874527   -2.249547
 Cl     1.100214    3.828788    0.643285
 O      1.458478    1.202941    0.564844
 O      0.301286    0.697022   -1.400756
 C      1.468964   -0.993406    0.019140
 C      0.016089   -0.927721    0.110098
 C     -1.797096   -0.098096   -1.128411
 C      3.453019    0.260028    0.092921
 C      4.199684   -0.802759   -0.368075
 C      2.162074   -2.121539   -0.414248
 C      3.526937   -1.993736   -0.607684
 C     -0.813823   -1.715747    0.890578
 C     -2.169403   -1.654159    0.612501
 C     -2.683557   -0.895751   -0.430872
 H      4.088909   -2.837333   -0.987146
 H     -2.851892   -2.255197    1.197436
 C     -4.112846   -1.014494   -0.788308
 C     -2.059840    0.633048   -2.432512
 N      2.125407    0.150700    0.206926
 N     -0.509525   -0.101101   -0.794027
 C      4.008931    1.594451    0.554657
 C      5.637553   -0.663779   -0.661514
 F      3.520731    1.848666    1.738023
 F      3.651202    2.495872   -0.314445
 F      5.312139    1.538510    0.636995
 F     -1.786554    1.893444   -2.325230
 F     -3.309616    0.483285   -2.788861
 F     -1.279410    0.070254   -3.325047
 C      6.044701    0.247516   -1.626985
 C      6.571087   -1.437226    0.012872
 C      8.328864   -0.369754   -1.227398
 C      7.919228   -1.284630   -0.266639
 C      7.390187    0.392811   -1.910468
 H      5.313342    0.843801   -2.157076
 H      7.707816    1.104328   -2.666946
 H      9.386371   -0.251867   -1.447345
 H      8.652057   -1.882158    0.267789
 H      6.250582   -2.145797    0.767878
 C     -4.596584   -2.257594   -1.178038
 C     -4.970138    0.073208   -0.737169
 C     -6.783698   -1.313295   -1.478110
 C     -6.302420   -0.073725   -1.078890
 C     -5.928459   -2.405610   -1.528149
 H     -3.930057   -3.110587   -1.224876
 H     -6.298812   -3.377647   -1.840892
 H     -7.829144   -1.428311   -1.750651
 H     -6.967013    0.784036   -1.034273
 H     -4.600693    1.038228   -0.434413
 C      1.460180   -3.411422   -0.728324
 H      1.373084   -4.025105    0.170195
 H      0.464818   -3.235295   -1.126325
 H      2.033934   -3.971940   -1.464404
 C     -0.278876   -2.607047    1.972431
 H     -0.896511   -2.504750    2.862280
 H     -0.315388   -3.652328    1.657850
 H      0.745139   -2.353475    2.229518
