77

 Si     0.723042    1.915251   -0.214497
 O     -0.824495    1.743953    0.203037
 C     -1.677948    2.404521    1.072574
 C     -2.823753    2.886296    0.245262
 H     -1.150026    3.258192    1.500558
 C     -2.501883    3.656282   -0.861950
 C     -4.143396    2.549558    0.477187
 C     -3.478303    4.050411   -1.752341
 H     -1.472474    3.933275   -1.030086
 C     -5.131966    2.949514   -0.408293
 H     -4.418363    1.972545    1.347671
 C     -4.800676    3.689131   -1.530098
 H     -3.210004    4.643532   -2.621052
 H     -6.165899    2.678839   -0.218379
 H     -5.573811    3.996404   -2.228284
 C     -2.026275    1.455310    2.188480
 C     -0.817110    0.922072    2.830080
 H     -2.632819    1.963874    2.946249
 H     -2.611459    0.625544    1.804183
 C      0.176151    0.492672    3.348120
 H      1.055730    0.133021    3.822070
 Cl     1.447088    2.600201   -1.956836
 Cl     1.179000    3.539695    0.922370
 O      1.638288    0.923359    0.828700
 O      0.469979    0.383181   -1.115093
 C      1.685450   -1.271878    0.267188
 C      0.234649   -1.243691    0.390508
 C     -1.633636   -0.387198   -0.737904
 C      3.641484    0.022732    0.321796
 C      4.403424   -1.020214   -0.157281
 C      2.396393   -2.383741   -0.181055
 C      3.753574   -2.226126   -0.395227
 C     -0.551648   -2.016042    1.222246
 C     -1.923084   -1.968834    1.002205
 C     -2.481225   -1.206088   -0.006957
 H      4.329772   -3.054490   -0.786383
 H     -2.575412   -2.576941    1.615924
 C     -3.933011   -1.238953   -0.270712
 C     -2.126378    0.471490   -1.887182
 N      2.317048   -0.114621    0.452669
 N     -0.331437   -0.419059   -0.499659
 C      4.172699    1.361330    0.799920
 C      5.834211   -0.849074   -0.467007
 F      3.694792    1.581222    1.994613
 F      3.781899    2.271917   -0.045079
 F      5.478139    1.335080    0.863220
 F     -3.321315    0.904590   -1.599522
 F     -2.174973   -0.326143   -2.937402
 F     -1.360994    1.472027   -2.148172
 C      6.211775    0.086749   -1.421034
 C      6.790908   -1.617951    0.179874
 C      8.511871   -0.496757   -1.064588
 C      8.132038   -1.436106   -0.115208
 C      7.550340    0.261240   -1.720369
 H      5.462628    0.679108   -1.930203
 H      7.844605    0.991950   -2.467941
 H      9.563946   -0.355813   -1.296702
 H      8.882797   -2.029777    0.398214
 H      6.493765   -2.345660    0.926171
 C     -4.411116   -1.647301   -1.507189
 C     -4.820169   -0.857237    0.725403
 C     -6.658356   -1.236791   -0.770134
 C     -6.181613   -0.848670    0.474238
 C     -5.771077   -1.643671   -1.757200
 H     -3.726120   -1.969398   -2.276739
 H     -6.139797   -1.962416   -2.727687
 H     -7.726485   -1.229981   -0.968998
 H     -6.871815   -0.538737    1.253475
 H     -4.452135   -0.554335    1.696728
 C      0.027768   -2.852769    2.324866
 H     -0.213120   -3.907261    2.175131
 H      1.104683   -2.739670    2.393649
 H     -0.411318   -2.539062    3.273380
 C      1.698088   -3.676449   -0.492280
 H      1.369190   -4.168192    0.423094
 H      0.826057   -3.500806   -1.120877
 H      2.373623   -4.348168   -1.017454
