77

 Si    -0.016055    1.103319    1.731039
 O      0.624056    1.411605    0.314085
 C      0.203283    2.201061   -0.775514
 C     -0.426580    3.454694   -0.254502
 H     -0.521436    1.623311   -1.341848
 C      0.300058    4.292274    0.579791
 C     -1.740355    3.768061   -0.565233
 C     -0.281035    5.429931    1.109238
 H      1.323999    4.046630    0.823612
 C     -2.326636    4.910867   -0.041322
 H     -2.311054    3.116140   -1.212293
 C     -1.599177    5.741606    0.797888
 H      0.294032    6.074423    1.767236
 H     -3.357432    5.148932   -0.287184
 H     -2.059096    6.634080    1.212918
 C      1.423006    2.463954   -1.615025
 C      1.933709    1.259887   -2.287173
 H      1.187070    3.203061   -2.390559
 H      2.204895    2.884412   -0.981386
 C      2.353908    0.307800   -2.884894
 H      2.740428   -0.506909   -3.445376
 Cl    -1.987357    0.902375    1.718298
 Cl     0.445959    2.219063    3.296099
 O     -0.613862   -0.530231   -1.506597
 O      0.698192   -0.390783    1.981853
 C     -0.661428   -1.836955    0.297431
 C      0.780263   -1.746191    0.159561
 C      2.717718   -0.659853    0.925924
 C     -2.650894   -1.112799   -0.696586
 C     -3.385645   -1.733419    0.296538
 C     -1.341631   -2.514954    1.294422
 C     -2.723726   -2.458969    1.275530
 C      1.496273   -2.381506   -0.850345
 C      2.842653   -2.102391   -0.943510
 C      3.472320   -1.210678   -0.079330
 H     -3.298647   -2.950327    2.046991
 H      3.430353   -2.561974   -1.727356
 C      4.886380   -0.835082   -0.274091
 C      3.252027    0.277007    1.984611
 N     -1.294148   -1.134852   -0.678004
 N      1.403451   -0.922447    0.993690
 C     -3.208234   -0.329466   -1.855273
 C     -4.852507   -1.573540    0.354278
 F     -2.711063   -0.792089   -2.977653
 F     -2.876199    0.939068   -1.706016
 F     -4.515269   -0.423020   -1.905383
 F      2.799402    1.473138    1.689121
 F      4.553737    0.284603    1.991443
 F      2.814631   -0.094019    3.157118
 C     -5.381149   -0.332225    0.679085
 C     -5.690756   -2.645392    0.093612
 C     -7.595969   -1.228565    0.460464
 C     -7.065069   -2.470279    0.141377
 C     -6.751881   -0.159645    0.733487
 H     -4.719933    0.498560    0.884375
 H     -7.164070    0.812035    0.988877
 H     -8.673147   -1.092796    0.499501
 H     -7.722834   -3.308199   -0.070812
 H     -5.274463   -3.613452   -0.159749
 C      5.898523   -1.753341   -0.040817
 C      5.185713    0.454662   -0.689221
 C      7.523656   -0.081882   -0.619424
 C      6.505234    0.830595   -0.863442
 C      7.220191   -1.373017   -0.209462
 H      5.659777   -2.758917    0.285949
 H      8.015513   -2.088062   -0.019791
 H      8.560410    0.214653   -0.752744
 H      6.740496    1.838758   -1.191512
 H      4.387741    1.157526   -0.884690
 C     -0.571081   -3.240096    2.354240
 H      0.130040   -3.944750    1.905132
 H     -0.004245   -2.525706    2.949701
 H     -1.241802   -3.788540    3.011413
 C      0.787555   -3.279322   -1.816371
 H      0.210894   -2.667171   -2.509375
 H      1.502275   -3.874724   -2.380797
 H      0.106046   -3.949555   -1.295269
