77

 Si    -0.347348    0.837588    2.364760
 O      0.487344    1.482434    1.180857
 C      0.287414    2.558496    0.300140
 C      1.102575    2.292570   -0.917793
 H     -0.765342    2.597000    0.029411
 C      2.357603    1.732349   -0.771440
 C      0.609901    2.559037   -2.184569
 C      3.111208    1.399346   -1.883470
 H      2.734673    1.562912    0.222175
 C      1.358939    2.231315   -3.301345
 H     -0.369648    3.001262   -2.302867
 C      2.606894    1.642399   -3.153526
 H      4.096937    0.963413   -1.763804
 H      0.966026    2.436271   -4.292861
 H      3.194913    1.387312   -4.030869
 C      0.679457    3.842194    0.995237
 C     -0.257411    4.179505    2.080804
 H      0.684630    4.664729    0.270861
 H      1.688128    3.736631    1.399089
 C     -1.047486    4.437858    2.947250
 H     -1.739113    4.665988    3.722994
 Cl     0.060019    1.292256    4.244557
 Cl    -2.313186    0.935571    2.119201
 O     -0.699848    0.373956   -1.298812
 O      0.141440   -0.756901    2.162288
 C     -1.129461   -1.383479   -0.014044
 C      0.318938   -1.464886    0.011304
 C      2.243322   -1.085004    1.307285
 C     -2.875708   -0.095660   -0.890832
 C     -3.801382   -0.870924   -0.217860
 C     -2.007961   -2.221121    0.652842
 C     -3.359918   -1.953529    0.529202
 C      1.093451   -1.827168   -1.088141
 C      2.462261   -1.790991   -0.937661
 C      3.067815   -1.416299    0.260890
 H     -4.083835   -2.564677    1.048503
 H      3.096112   -2.050822   -1.775259
 C      4.540644   -1.372349    0.370708
 C      2.710721   -0.655502    2.677991
 N     -1.547691   -0.336087   -0.766134
 N      0.910863   -1.079559    1.135059
 C     -3.168974    1.089829   -1.771103
 C     -5.234474   -0.515974   -0.241782
 F     -4.457750    1.228961   -1.965077
 F     -2.582507    0.930512   -2.934540
 F     -2.702284    2.176251   -1.184487
 F      2.486919    0.638436    2.741441
 F      3.978056   -0.897851    2.846098
 F      2.027472   -1.281112    3.596035
 C     -5.654465    0.633760    0.412156
 C     -6.149202   -1.319045   -0.903839
 C     -7.909662    0.190753   -0.276935
 C     -7.488282   -0.961245   -0.925795
 C     -6.991281    0.986513    0.396062
 H     -4.934878    1.254559    0.928283
 H     -7.318433    1.886127    0.908872
 H     -8.959554    0.469579   -0.293333
 H     -8.204514   -1.586072   -1.451527
 H     -5.817759   -2.216323   -1.413473
 C      5.268922   -2.547522    0.249992
 C      5.192773   -0.165921    0.582296
 C      7.302160   -1.311135    0.572856
 C      6.571672   -0.135005    0.682037
 C      6.649985   -2.517296    0.356949
 H      4.759678   -3.490332    0.086799
 H      7.217628   -3.439384    0.271155
 H      8.385314   -1.286640    0.654821
 H      7.078476    0.811433    0.845914
 H      4.627402    0.749699    0.669955
 C     -1.474019   -3.340922    1.491213
 H     -0.794309   -3.965556    0.910341
 H     -0.925269   -2.934391    2.339517
 H     -2.284095   -3.963010    1.864447
 C      0.434823   -2.200528   -2.379117
 H      0.059713   -1.297345   -2.857945
 H      1.145710   -2.686129   -3.044296
 H     -0.401886   -2.875105   -2.206114
