77

 Si    -0.293526    1.009849    1.934587
 O     -0.064409    2.358963    1.116307
 C      0.712464    3.427712    0.749713
 C      1.797605    2.928444   -0.155790
 H      1.157679    3.881943    1.640151
 C      1.482231    1.961619   -1.093223
 C      3.112072    3.330592   -0.005167
 C      2.472635    1.368835   -1.849349
 H      0.459641    1.655647   -1.196142
 C      4.109495    2.753093   -0.775292
 H      3.366277    4.083924    0.731840
 C      3.793853    1.764807   -1.691156
 H      2.212835    0.605821   -2.576185
 H      5.140138    3.069029   -0.645885
 H      4.577330    1.306480   -2.285696
 C     -0.192973    4.424567    0.069601
 C     -1.277748    4.850858    0.963736
 H      0.377021    5.306132   -0.249114
 H     -0.620508    3.961133   -0.817743
 C     -2.157013    5.181312    1.710791
 H     -2.933650    5.499953    2.363865
 Cl     0.558499    1.535000    3.699647
 Cl    -2.157195    0.688907    2.619145
 O     -0.614246    0.421595    0.261355
 O      0.454831   -0.541020    2.015010
 C     -1.289874   -1.724232    0.406687
 C      0.136146   -1.996020    0.293171
 C      2.249386   -1.109491    0.780035
 C     -2.766654    0.017263   -0.152298
 C     -3.866610   -0.802685    0.003880
 C     -2.341221   -2.610675    0.579119
 C     -3.625471   -2.112312    0.394894
 C      0.683124   -2.807777   -0.701466
 C      2.056488   -2.786919   -0.863980
 C      2.872069   -1.937594   -0.126581
 H     -4.471207   -2.766555    0.564070
 H      2.513226   -3.426143   -1.608139
 C      4.334155   -1.917398   -0.293660
 C      2.907519    0.033955    1.513137
 N     -1.555058   -0.438619    0.143886
 N      0.936353   -1.202565    1.007067
 C     -2.741121    1.429124   -0.702079
 C     -5.228448   -0.261805   -0.133087
 F     -3.885813    1.707813   -1.268289
 F     -1.794382    1.467365   -1.612828
 F     -2.477146    2.279997    0.235773
 F      2.092585    1.045607    1.395455
 F      4.036138    0.352566    0.954200
 F      3.080584   -0.285894    2.760804
 C     -5.597694    0.819508    0.656808
 C     -6.132244   -0.820896   -1.024776
 C     -7.772097    0.801806   -0.356505
 C     -7.403772   -0.283170   -1.140741
 C     -6.869330    1.349791    0.546085
 H     -4.891939    1.241396    1.359686
 H     -7.157843    2.193189    1.166287
 H     -8.770312    1.221431   -0.446626
 H     -8.109204   -0.713058   -1.845924
 H     -5.841039   -1.663537   -1.641203
 C      5.151856   -2.118544    0.810782
 C      4.890521   -1.688169   -1.544031
 C      7.085158   -1.833025   -0.581035
 C      6.267024   -1.639317   -1.686135
 C      6.526148   -2.077721    0.666629
 H      4.717955   -2.308519    1.783234
 H      7.163732   -2.237508    1.531112
 H      8.165331   -1.796129   -0.693156
 H      6.702553   -1.449179   -2.662808
 H      4.251130   -1.525101   -2.403007
 C     -2.116189   -4.027650    1.023630
 H     -2.477556   -4.732498    0.272176
 H     -1.067109   -4.223001    1.223436
 H     -2.677839   -4.203801    1.943341
 C     -0.180458   -3.653094   -1.594115
 H      0.379016   -3.944703   -2.480636
 H     -0.495233   -4.560837   -1.078175
 H     -1.068677   -3.109870   -1.909110
