77

 Si    -0.042700    1.119427    1.307459
 O     -0.549882    2.618984    1.214430
 C     -0.098079    3.683262    0.405333
 C     -1.003859    3.766068   -0.777801
 H      0.918469    3.455753    0.075397
 C     -2.351735    4.021972   -0.589188
 C     -0.524840    3.528740   -2.054473
 C     -3.219951    4.027712   -1.662153
 H     -2.725720    4.204340    0.407422
 C     -1.389162    3.546602   -3.137659
 H      0.530064    3.333780   -2.210246
 C     -2.737714    3.791611   -2.942056
 H     -4.275751    4.221332   -1.501792
 H     -1.006046    3.369231   -4.138104
 H     -3.417209    3.802632   -3.789198
 C     -0.074261    4.926973    1.256214
 C      0.868528    4.790990    2.379273
 H      0.215830    5.791592    0.646184
 H     -1.075530    5.109225    1.648606
 C      1.641212    4.658397    3.288544
 H      2.324509    4.560587    4.098577
 Cl    -0.989315    0.072641    2.685758
 Cl     1.929745    1.050924    1.513658
 O     -0.358929    0.425205   -0.184516
 O      0.840339   -2.619125    1.827365
 C     -0.359644   -1.852684   -0.281396
 C      1.084547   -1.743386   -0.215307
 C      2.948968   -2.116317    1.150392
 C     -2.368767   -0.623305   -0.354597
 C     -3.129711   -1.761614   -0.310448
 C     -1.070259   -3.054995   -0.304043
 C     -2.447190   -2.980836   -0.292042
 C      1.867605   -1.184377   -1.215255
 C      3.222510   -1.068908   -0.980949
 C      3.765760   -1.502329    0.221213
 H     -3.027480   -3.894385   -0.268813
 H      3.866529   -0.607986   -1.715042
 C      5.185837   -1.245320    0.525886
 C      3.412457   -2.724872    2.450403
 N     -1.030588   -0.706743   -0.270633
 N      1.601492   -2.186448    0.964399
 C     -2.863630    0.782555   -0.587101
 C     -4.600734   -1.694159   -0.249009
 F     -4.128783    0.808693   -0.886398
 F     -2.173498    1.268853   -1.583152
 F     -2.641911    1.482438    0.490636
 F      4.721960   -2.842115    2.461797
 F      2.893376   -3.922922    2.584426
 F      3.040480   -1.950801    3.445933
 C     -5.201686   -1.035227    0.815479
 C     -5.376284   -2.281773   -1.238158
 C     -7.359262   -1.529922   -0.110598
 C     -6.757093   -2.193656   -1.171310
 C     -6.580480   -0.954429    0.885077
 H     -4.593806   -0.588399    1.591378
 H     -7.049488   -0.441773    1.719698
 H     -8.442493   -1.463277   -0.057889
 H     -7.364807   -2.644993   -1.950246
 H     -4.905193   -2.793857   -2.069317
 C      6.190801   -1.823842   -0.233050
 C      5.502661   -0.399941    1.580290
 C      7.836456   -0.731852    1.134427
 C      6.826431   -0.141877    1.883592
 C      7.518013   -1.572094    0.076729
 H      5.940263   -2.483628   -1.055450
 H      8.305840   -2.033970   -0.511265
 H      8.877059   -0.533426    1.375426
 H      7.071947    0.520079    2.708673
 H      4.713791    0.051112    2.166057
 C     -0.334341   -4.358824   -0.302901
 H      0.482883   -4.337714   -1.022351
 H      0.083132   -4.534092    0.687582
 H     -1.005952   -5.176235   -0.556905
 C      1.228903   -0.705151   -2.482678
 H      1.986812   -0.420985   -3.208437
 H      0.607705   -1.486364   -2.921214
 H      0.600847    0.159219   -2.280572
