77

 Si     0.086887    1.334420    0.745720
 O     -1.000613    2.458281    0.525000
 C     -2.049033    3.092950    1.211221
 C     -3.243046    3.014385    0.323651
 H     -2.237588    2.553952    2.140654
 C     -3.119756    3.419310   -0.994506
 C     -4.426745    2.445404    0.759050
 C     -4.160010    3.230416   -1.883846
 H     -2.191951    3.859733   -1.330071
 C     -5.474273    2.255650   -0.126209
 H     -4.529729    2.129891    1.789683
 C     -5.339677    2.639714   -1.450278
 H     -4.051562    3.541583   -2.918345
 H     -6.396269    1.798588    0.219748
 H     -6.158341    2.484854   -2.147278
 C     -1.606091    4.497017    1.541388
 C     -0.433795    4.474637    2.434092
 H     -2.422096    5.042002    2.031977
 H     -1.351792    5.021020    0.618733
 C      0.519200    4.408607    3.161617
 H      1.360960    4.365410    3.811393
 Cl     0.051591    0.314821    2.433421
 Cl     1.894478    2.052975    0.351894
 O     -0.201813    0.290997   -0.530059
 O      2.086653   -2.019273    1.409316
 C      0.470212   -1.871946   -0.534302
 C      1.802655   -1.318542   -0.694032
 C      3.805976   -0.892806    0.439709
 C     -1.801052   -1.307858   -0.253572
 C     -2.151734   -2.622299   -0.073521
 C      0.175672   -3.229840   -0.418224
 C     -1.138986   -3.576455   -0.178822
 C      2.247425   -0.659867   -1.830005
 C      3.506671   -0.096370   -1.794199
 C      4.277444   -0.175574   -0.642123
 H     -1.398571   -4.619292   -0.047622
 H      3.884929    0.449172   -2.645852
 C      5.557874    0.554096   -0.561734
 C      4.558878   -1.139592    1.723759
 N     -0.509809   -0.980131   -0.420903
 N      2.557463   -1.436995    0.432801
 C     -2.746533   -0.131717   -0.187156
 C     -3.535700   -3.001055    0.271568
 F     -3.986695   -0.506381   -0.280199
 F     -2.480317    0.709636   -1.139941
 F     -2.533492    0.428606    0.976203
 F      5.810658   -0.755952    1.608978
 F      4.547061   -2.424002    1.997430
 F      3.988239   -0.460638    2.694483
 C     -4.060392   -2.595627    1.491060
 C     -4.303411   -3.745305   -0.611495
 C     -6.137986   -3.660770    0.936638
 C     -5.608651   -4.070715   -0.279660
 C     -5.361382   -2.926506    1.823589
 H     -3.454272   -2.022682    2.180509
 H     -5.770891   -2.611675    2.778904
 H     -7.161220   -3.917696    1.196494
 H     -6.214152   -4.646261   -0.973833
 H     -3.891049   -4.059291   -1.563568
 C      6.633161    0.184534   -1.353812
 C      5.667236    1.625135    0.313957
 C      7.942733    1.945387   -0.376665
 C      6.858221    2.321418    0.405456
 C      7.829439    0.877582   -1.255826
 H      6.544289   -0.652875   -2.035953
 H      8.675715    0.581687   -1.868999
 H      8.880339    2.488956   -0.301213
 H      6.942305    3.159106    1.091352
 H      4.823036    1.908625    0.927397
 C      1.276031   -4.240692   -0.510972
 H      1.924505   -4.025088   -1.359020
 H      1.873935   -4.199302    0.399043
 H      0.867705   -5.242873   -0.624069
 C      1.350513   -0.551335   -3.024319
 H      1.890240   -0.139285   -3.873373
 H      0.958940   -1.529246   -3.305397
 H      0.511210    0.103253   -2.796918
