83

 Si     0.249901    1.957545   -0.390081
 O     -1.265898    1.719702    0.135693
 C     -1.884949    2.084944    1.328907
 C     -1.827949    0.895476    2.244520
 H     -1.311488    2.889097    1.789481
 C     -2.928463    0.120669    2.565562
 C     -0.587923    0.557942    2.770729
 C     -2.796090   -0.974705    3.408860
 H     -3.904736    0.367485    2.171445
 C     -0.445292   -0.537229    3.601501
 H      0.266933    1.166887    2.524712
 C     -1.554910   -1.308134    3.927067
 H     -3.671149   -1.566976    3.660963
 H      0.530936   -0.783816    4.008641
 H     -1.451428   -2.164331    4.587975
 C     -3.260450    2.617558    1.031235
 C     -3.184506    3.814494    0.181018
 H     -3.769844    2.878846    1.966490
 H     -3.858370    1.861101    0.527281
 C     -3.097441    4.787757   -0.515771
 H     -3.034028    5.656234   -1.127783
 Cl     0.747373    2.834193   -2.140663
 Cl     0.757395    3.552061    0.803866
 O      1.331185    1.019495    0.532829
 O      0.025351    0.491189   -1.358784
 C      1.295771   -1.214549    0.083942
 C     -0.163101   -1.206006    0.095480
 C     -2.025813   -0.519945   -1.193274
 C      3.334576   -0.010103    0.181665
 C      4.042121   -1.183999   -0.090950
 C      1.969282   -2.392936   -0.140859
 C      3.348869   -2.371069   -0.241476
 C     -0.919567   -2.116408    0.788029
 C     -2.274633   -2.177061    0.522470
 C     -2.837694   -1.406758   -0.480721
 H      1.405646   -3.307436   -0.267921
 H      3.891075   -3.286648   -0.447826
 H     -0.450561   -2.758630    1.519642
 H     -2.899411   -2.865812    1.075848
 C     -4.279587   -1.562308   -0.794801
 C     -2.456892    0.141560   -2.469527
 N      1.990261   -0.070494    0.213697
 N     -0.750809   -0.406460   -0.806709
 C      4.033491    1.273721    0.518246
 C      5.523312   -1.181752   -0.205867
 C      6.146040   -0.498632   -1.244603
 C      6.288695   -1.887974    0.714325
 C      8.291012   -1.216557   -0.432662
 C      7.670868   -1.901386    0.603686
 C      7.526575   -0.517448   -1.358535
 H      5.553242    0.045124   -1.970240
 H      8.006910    0.015434   -2.174248
 H      9.373844   -1.228999   -0.521055
 H      8.264183   -2.449811    1.329831
 H      5.808053   -2.419801    1.527555
 C     -4.793318   -2.827340   -1.060662
 C     -5.131946   -0.464089   -0.800880
 C     -6.988753   -1.890138   -1.339629
 C     -6.481071   -0.625580   -1.069469
 C     -6.142029   -2.990389   -1.336531
 H     -4.136392   -3.689197   -1.068112
 H     -6.531680   -3.981725   -1.550107
 H     -8.046399   -2.017572   -1.553220
 H     -7.137514    0.239945   -1.068076
 H     -4.742960    0.521765   -0.592794
 C     -2.591389    1.645367   -2.396163
 C     -1.530668   -0.290223   -3.600009
 H     -3.445829   -0.276952   -2.673162
 C      3.697676    1.725033    1.931665
 H      5.095005    1.018420    0.500986
 C      3.799353    2.344971   -0.528702
 H      4.332298    2.570891    2.195239
 H      2.667486    2.038387    2.016255
 H      3.889871    0.930726    2.653306
 H      2.779146    2.690488   -0.513963
 H      4.445258    3.197301   -0.324311
 H      4.031724    1.982865   -1.528923
 H     -3.047211    2.004661   -3.318334
 H     -3.213538    1.958726   -1.570341
 H     -1.630088    2.116532   -2.289633
 H     -0.536294    0.112787   -3.465902
 H     -1.466095   -1.376170   -3.669594
 H     -1.924561    0.076166   -4.547766
