83

 Si    -0.281868   -1.666851   -0.431378
 O      1.135395   -1.355956    0.286578
 C      1.771717   -1.916260    1.393385
 C      3.106947   -2.402501    0.923744
 H      1.191155   -2.770938    1.739771
 C      3.118809   -3.532719    0.114633
 C      4.292616   -1.730757    1.166321
 C      4.298294   -3.979387   -0.452751
 H      2.191080   -4.057721   -0.074777
 C      5.480426   -2.174400    0.602247
 H      4.305367   -0.858532    1.802909
 C      5.484802   -3.296412   -0.211844
 H      4.293864   -4.863313   -1.083986
 H      6.404915   -1.640911    0.802946
 H      6.413637   -3.645148   -0.654494
 C      1.793431   -0.889358    2.494518
 C      0.434821   -0.568256    2.956903
 H      2.367730   -1.262488    3.350187
 H      2.272551    0.020873    2.143857
 C     -0.671884   -0.313706    3.345133
 H     -1.645132   -0.095084    3.709826
 Cl    -0.515624   -2.299259   -2.337599
 Cl    -0.697829   -3.482708    0.438451
 O     -1.522927   -0.995625    0.511636
 O     -0.136323   -0.051498   -1.155303
 C     -1.658934    1.279423    0.431688
 C     -0.208945    1.393791    0.554564
 C      1.783776    1.118906   -0.695997
 C     -3.577684   -0.085132    0.160841
 C     -4.373255    1.055957    0.028360
 C     -2.424484    2.419724    0.349054
 C     -3.786476    2.303564    0.134605
 C      0.412883    2.221306    1.454885
 C      1.765677    2.465618    1.292313
 C      2.449433    1.962855    0.198918
 H     -1.942331    3.385560    0.419854
 H     -4.397117    3.193946    0.038653
 H     -0.158320    2.669219    2.256855
 H      2.284016    3.108823    1.993929
 C      3.875705    2.337992    0.007278
 C      2.385252    0.654020   -1.989118
 N     -2.250840    0.077326    0.316227
 N      0.508482    0.819836   -0.423721
 C     -4.167745   -1.462876    0.215710
 C     -5.836101    0.950939   -0.208448
 C     -6.318001    0.411527   -1.395963
 C     -6.726666    1.417872    0.750785
 C     -8.572385    0.794138   -0.656295
 C     -8.093002    1.335250    0.529004
 C     -7.683000    0.334977   -1.619908
 H     -5.627481    0.055026   -2.150830
 H     -8.053304   -0.084331   -2.551106
 H     -9.642855    0.731583   -0.831418
 H     -8.784341    1.696030    1.285287
 H     -6.355879    1.836851    1.679319
 C      4.264913    3.139589   -1.060366
 C      4.822618    1.922773    0.934955
 C      6.541338    3.069511   -0.290872
 C      6.153557    2.280916    0.783490
 C      5.593457    3.503403   -1.209144
 H      3.529588    3.490624   -1.774419
 H      5.888857    4.131380   -2.044945
 H      7.583313    3.353281   -0.409861
 H      6.887739    1.945807    1.510586
 H      4.524221    1.312627    1.777442
 C      2.709864   -0.821508   -2.037692
 C      1.510787    1.091434   -3.156494
 H      3.331790    1.193349   -2.057000
 C     -3.900096   -2.116439    1.563189
 H     -5.245159   -1.303497    0.136808
 C     -3.740125   -2.313772   -0.964344
 H     -4.444441   -3.059009    1.616425
 H     -2.849607   -2.324492    1.705223
 H     -4.252130   -1.485865    2.380050
 H     -2.694997   -2.568224   -0.906659
 H     -4.310621   -3.241142   -0.966740
 H     -3.925486   -1.806729   -1.910008
 H      3.329773   -1.119110   -1.204311
 H      1.816197   -1.419733   -2.035533
 H      3.255879   -1.029204   -2.957475
 H      0.572132    0.554954   -3.163571
 H      1.304319    2.161318   -3.122482
 H      2.030274    0.886950   -4.092489
