83

 Si     0.253088    1.475246   -0.636177
 O     -1.163412    1.136507    0.051849
 C     -2.008478    1.370175    1.113989
 C     -3.133001    2.269824    0.692575
 H     -2.432007    0.394925    1.378511
 C     -2.936302    3.194549   -0.318348
 C     -4.382006    2.168928    1.292919
 C     -3.976385    4.007133   -0.738644
 H     -1.965723    3.277432   -0.779634
 C     -5.425046    2.982324    0.879684
 H     -4.543941    1.452563    2.090754
 C     -5.224727    3.902136   -0.140967
 H     -3.808128    4.726179   -1.535022
 H     -6.397766    2.897541    1.355923
 H     -6.041510    4.539447   -0.467853
 C     -1.287394    1.901718    2.331687
 C     -0.236191    0.997856    2.825469
 H     -2.016459    2.044180    3.137972
 H     -0.837298    2.864903    2.103048
 C      0.614913    0.275114    3.266871
 H      1.366241   -0.344055    3.689739
 Cl     0.273165    2.003853   -2.585222
 Cl     0.567302    3.364490    0.096760
 O      1.504300    0.951389    0.392411
 O      0.295105   -0.199102   -1.217088
 C      1.756944   -1.318642    0.551909
 C      0.310649   -1.498600    0.607480
 C     -1.665022   -1.256520   -0.692419
 C      3.604918    0.117212    0.177157
 C      4.468806   -0.980254    0.214392
 C      2.589025   -2.411074    0.635516
 C      3.950780   -2.238015    0.462621
 C     -0.342992   -2.267114    1.537800
 C     -1.690500   -2.519363    1.343457
 C     -2.353079   -2.052740    0.220556
 H      2.158302   -3.390149    0.798465
 H      4.614344   -3.094235    0.500507
 H      0.195564   -2.659203    2.389830
 H     -2.233437   -3.118656    2.065480
 C     -3.785342   -2.400491    0.036949
 C     -2.171889   -0.669726   -1.970970
 N      2.285871   -0.100646    0.326882
 N     -0.373537   -1.005664   -0.432144
 C      4.107391    1.522510    0.036374
 C      5.930792   -0.817456    0.005449
 C      6.423192   -0.418660   -1.232311
 C      6.811642   -1.092343    1.044423
 C      8.667907   -0.556495   -0.384916
 C      8.178172   -0.957322    0.850743
 C      7.788695   -0.290031   -1.427263
 H      5.740864   -0.213339   -2.048498
 H      8.167527    0.018486   -2.397512
 H      9.738634   -0.453275   -0.537757
 H      8.861518   -1.167256    1.668689
 H      6.432381   -1.401325    2.011843
 C     -4.157623   -3.405891   -0.845357
 C     -4.754559   -1.732139    0.774389
 C     -6.466775   -3.041810   -0.286080
 C     -6.093635   -2.048016    0.609459
 C     -5.497097   -3.724350   -1.008320
 H     -3.404075   -3.945681   -1.405280
 H     -5.783185   -4.511635   -1.700070
 H     -7.516381   -3.290959   -0.415161
 H     -6.847839   -1.516917    1.183100
 H     -4.466674   -0.952596    1.468144
 C     -1.961039   -1.681476   -3.091320
 C     -3.587616   -0.135215   -1.920092
 H     -1.514815    0.170443   -2.159763
 C      3.810442    2.335395    1.287122
 H      5.192106    1.423439   -0.039451
 C      3.615851    2.166176   -1.246538
 H      4.278811    3.315186    1.196479
 H      2.749633    2.478621    1.429877
 H      4.225532    1.851667    2.171653
 H      2.555599    2.353219   -1.215555
 H      4.116449    3.122348   -1.388733
 H      3.834195    1.543798   -2.113240
 H     -2.574914   -2.567681   -2.948871
 H     -2.234556   -1.234370   -4.046583
 H     -0.916966   -1.984695   -3.152024
 H     -4.329985   -0.922154   -1.879123
 H     -3.727582    0.529079   -1.075519
 H     -3.769762    0.441341   -2.827086
