83

 Si    -0.503322    0.879642    1.661565
 O     -0.191533    2.192407    0.778366
 C      0.741354    3.195616    0.629942
 C      1.816311    2.731784   -0.317901
 H      1.187995    3.435052    1.600470
 C      1.574355    1.646045   -1.142481
 C      3.049452    3.366814   -0.371484
 C      2.555094    1.181704   -2.003090
 H      0.614106    1.165575   -1.097495
 C      4.034183    2.909304   -1.234316
 H      3.247382    4.217201    0.272549
 C      3.790824    1.813128   -2.050423
 H      2.351267    0.331408   -2.647203
 H      4.997095    3.411604   -1.267447
 H      4.561123    1.458855   -2.729618
 C      0.019027    4.414228    0.099053
 C     -1.050581    4.839941    1.015300
 H      0.721399    5.244407   -0.042056
 H     -0.416864    4.173743   -0.872570
 C     -1.918854    5.164390    1.778266
 H     -2.684497    5.473121    2.449432
 Cl     0.374121    1.522362    3.406235
 Cl    -2.334633    0.552692    2.450944
 O     -0.934383    0.259547    0.043501
 O      0.404915   -0.563734    1.799001
 C     -1.430489   -1.913174    0.263362
 C      0.011797   -2.127274    0.168619
 C      2.210960   -1.559287    0.838805
 C     -3.099184   -0.349702   -0.362640
 C     -4.078315   -1.332445   -0.185900
 C     -2.357511   -2.914171    0.409954
 C     -3.696657   -2.596632    0.229756
 C      0.495966   -3.046616   -0.733711
 C      1.863003   -3.182870   -0.891641
 C      2.731233   -2.440477   -0.112391
 H     -2.034330   -3.915523    0.664680
 H     -4.454188   -3.356833    0.380746
 H     -0.202955   -3.621256   -1.327014
 H      2.257939   -3.875443   -1.625919
 C      4.196904   -2.604369   -0.284849
 C      3.089821   -0.905109    1.865225
 N     -1.843790   -0.670479   -0.031105
 N      0.875465   -1.387211    0.888480
 C     -3.346006    0.963520   -1.045543
 C     -5.509678   -1.022362   -0.416349
 C     -6.128737   -0.020196    0.322704
 C     -6.242322   -1.745072   -1.350599
 C     -8.199034   -0.456169   -0.815920
 C     -7.583676   -1.458857   -1.553424
 C     -7.470501    0.261054    0.125002
 H     -5.562817    0.534665    1.060635
 H     -7.949058    1.042127    0.708824
 H     -9.250879   -0.233733   -0.973021
 H     -8.149539   -2.022246   -2.289946
 H     -5.763610   -2.524822   -1.931899
 C      4.793083   -3.832680   -0.025086
 C      4.971396   -1.538777   -0.729120
 C      6.932152   -2.925196   -0.638720
 C      6.335608   -1.699548   -0.907438
 C      6.159742   -3.991219   -0.197287
 H      4.193790   -4.665306    0.325372
 H      6.621570   -4.951512    0.013955
 H      8.002704   -3.050128   -0.776051
 H      6.935227   -0.864347   -1.257899
 H      4.508429   -0.584338   -0.943778
 C      3.191090    0.591878    1.670902
 C      2.677326   -1.309448    3.273356
 H      4.079400   -1.329823    1.682473
 C     -2.444859    1.048672   -2.271399
 H     -4.382493    0.905462   -1.388685
 C     -3.206132    2.194545   -0.173109
 H     -2.704346    1.930872   -2.855484
 H     -1.406462    1.128917   -1.979916
 H     -2.563746    0.181158   -2.920786
 H     -2.186345    2.339546    0.140475
 H     -3.513863    3.064775   -0.751375
 H     -3.841371    2.142877    0.705957
 H      2.242733    1.070932    1.843235
 H      3.904768    1.001128    2.383489
 H      3.537394    0.836154    0.673856
 H      1.731019   -0.872535    3.556709
 H      2.611560   -2.393555    3.366677
 H      3.435483   -0.964377    3.976219
