83

 Si    -0.292310    0.761462    1.598525
 O     -0.086599    2.029580    0.619704
 C     -0.343637    2.517668   -0.642605
 C     -0.933478    3.893840   -0.525654
 H     -1.048602    1.873477   -1.161413
 C     -0.623986    4.675507    0.575052
 C     -1.775291    4.394849   -1.510294
 C     -1.157040    5.948502    0.701232
 H      0.023073    4.273432    1.341145
 C     -2.306754    5.670089   -1.390798
 H     -2.017882    3.788603   -2.376615
 C     -1.999218    6.448876   -0.283448
 H     -0.913288    6.550884    1.571530
 H     -2.964551    6.056031   -2.164532
 H     -2.416851    7.447229   -0.187514
 C      0.940283    2.532165   -1.441590
 C      1.396159    1.175000   -1.787014
 H      0.791456    3.077573   -2.380965
 H      1.711220    3.049980   -0.871479
 C      1.741393    0.074928   -2.122210
 H      2.058373   -0.879451   -2.457099
 Cl    -1.982673    0.132506    2.519698
 Cl     0.401112    1.817010    3.224279
 O     -0.632939   -0.132644    0.099378
 O      0.951575   -0.371874    1.853033
 C     -0.491229   -2.318461    0.623953
 C      0.951040   -2.170231    0.452240
 C      2.915767   -0.903195    0.831846
 C     -2.554575   -1.375093   -0.050657
 C     -3.211133   -2.547555    0.333232
 C     -1.096740   -3.498509    0.976981
 C     -2.477075   -3.587274    0.874993
 C      1.643706   -3.068060   -0.325511
 C      2.991978   -2.858271   -0.555582
 C      3.633296   -1.767871    0.001058
 H     -0.493623   -4.324670    1.331062
 H     -2.984294   -4.492607    1.187438
 H      1.115182   -3.900723   -0.770636
 H      3.545591   -3.540106   -1.191004
 C      5.068953   -1.528145   -0.292906
 C      3.588856    0.192784    1.603092
 N     -1.243677   -1.283016    0.211246
 N      1.599134   -1.123406    0.992249
 C     -3.203579   -0.305251   -0.878706
 C     -4.682013   -2.668503    0.185480
 C     -5.519267   -1.811002    0.890432
 C     -5.226916   -3.646656   -0.637511
 C     -7.437725   -2.899909   -0.061703
 C     -6.603157   -3.758867   -0.764320
 C     -6.894203   -1.927420    0.768589
 H     -5.095509   -1.057167    1.542489
 H     -7.543280   -1.257297    1.325044
 H     -8.516119   -2.989755   -0.159251
 H     -7.024145   -4.520866   -1.414115
 H     -4.577790   -4.315570   -1.191074
 C      6.033688   -2.416225    0.166130
 C      5.444582   -0.424150   -1.050172
 C      7.746862   -1.090507   -0.875289
 C      6.781304   -0.206999   -1.342060
 C      7.372142   -2.194560   -0.121412
 H      5.743982   -3.276605    0.758784
 H      8.123876   -2.888087    0.244670
 H      8.795356   -0.918600   -1.102530
 H      7.069898    0.654738   -1.937179
 H      4.691141    0.262212   -1.417292
 C      3.147237    1.564510    1.134453
 C      3.453531   -0.026161    3.102521
 H      4.648006    0.089111    1.356945
 C     -2.422502   -0.175149   -2.181745
 H     -4.190848   -0.705749   -1.125499
 C     -3.421767    1.019748   -0.176011
 H     -2.895131    0.565354   -2.825621
 H     -1.400436    0.127250   -2.004408
 H     -2.411018   -1.120280   -2.725121
 H     -2.495187    1.472469    0.132054
 H     -3.925830    1.702265   -0.859177
 H     -4.051843    0.901925    0.701202
 H      2.096635    1.729311    1.302987
 H      3.697238    2.327446    1.682396
 H      3.357545    1.694864    0.076714
 H      2.438705    0.117480    3.442023
 H      3.785159   -1.026666    3.380794
 H      4.090679    0.688505    3.623056
