83

 Si    -0.448654    0.798172    1.191925
 O     -0.728032    1.824859   -0.016670
 C     -0.573310    3.157392   -0.367372
 C     -1.562968    4.033702    0.340920
 H      0.433378    3.487563   -0.101876
 C     -2.850567    3.579530    0.573041
 C     -1.199562    5.302132    0.769480
 C     -3.768326    4.374870    1.237023
 H     -3.131179    2.593133    0.241173
 C     -2.116741    6.107435    1.428179
 H     -0.193394    5.665834    0.592486
 C     -3.402460    5.644256    1.666142
 H     -4.772897    4.004362    1.418501
 H     -1.823222    7.099443    1.759500
 H     -4.120749    6.272560    2.185053
 C     -0.725044    3.210505   -1.871903
 C      0.221354    2.294491   -2.531538
 H     -0.557390    4.228973   -2.243463
 H     -1.741038    2.918327   -2.141192
 C      0.994645    1.535499   -3.049921
 H      1.671935    0.887397   -3.551191
 Cl    -2.035316   -0.027359    2.132636
 Cl    -0.007165    2.187550    2.639818
 O     -0.435877   -0.384731   -0.147502
 O      1.007738    0.016692    1.634090
 C     -0.044762   -2.387626    0.809997
 C      1.371106   -2.046876    0.712421
 C      3.059248   -0.387251    0.732570
 C     -2.102058   -1.942639   -0.275453
 C     -2.632299   -3.122498    0.254165
 C     -0.522275   -3.566245    1.326430
 C     -1.845859   -3.902600    1.083738
 C      2.252597   -2.975120    0.205314
 C      3.553762   -2.593832   -0.064498
 C      3.961021   -1.293010    0.170038
 H      0.134584   -4.203277    1.904877
 H     -2.259145   -4.808111    1.512424
 H      1.898477   -3.973403   -0.014465
 H      4.250878   -3.306849   -0.489330
 C      5.350758   -0.888230   -0.165286
 C      3.472026    0.997739    1.128734
 N     -0.873499   -1.584808    0.116777
 N      1.799789   -0.798771    0.969390
 C     -2.769031   -1.141133   -1.352362
 C     -4.027981   -3.524610   -0.045877
 C     -5.083675   -2.707258    0.342126
 C     -4.285990   -4.727179   -0.693069
 C     -6.645526   -4.285596   -0.575836
 C     -5.592814   -5.104534   -0.961935
 C     -6.389575   -3.087574    0.079616
 H     -4.884808   -1.776744    0.859020
 H     -7.210146   -2.446816    0.389516
 H     -7.669652   -4.582858   -0.783957
 H     -5.788506   -6.042241   -1.474273
 H     -3.466042   -5.366301   -1.000221
 C      6.419290   -1.446115    0.525484
 C      5.586953    0.026661   -1.185678
 C      7.953031   -0.167548   -0.812265
 C      6.885404    0.384694   -1.509449
 C      7.718803   -1.082460    0.205168
 H      6.239506   -2.157302    1.323737
 H      8.550250   -1.517169    0.752746
 H      8.971175    0.115305   -1.065016
 H      7.064297    1.097316   -2.309607
 H      4.756683    0.458171   -1.732125
 C      2.681912    2.048917    0.376273
 C      3.433138    1.166568    2.640104
 H      4.514763    1.077434    0.816136
 C     -1.831829   -1.035719   -2.548943
 H     -3.635611   -1.739451   -1.646971
 C     -3.255315    0.222211   -0.912910
 H     -2.363295   -0.587398   -3.387678
 H     -0.977948   -0.412998   -2.318433
 H     -1.482451   -2.016288   -2.872674
 H     -2.421142    0.861560   -0.682420
 H     -3.825286    0.671275   -1.725558
 H     -3.906716    0.160143   -0.045853
 H      1.665539    2.084106    0.722603
 H      3.126534    3.027994    0.546021
 H      2.677114    1.863410   -0.695457
 H      2.424157    1.106015    3.022333
 H      4.046880    0.410645    3.130581
 H      3.838399    2.143683    2.901924
