83

 Si    -0.388573    1.532589    1.242085
 O      1.184083    1.562021    0.846412
 C      1.908262    2.449256    0.053637
 C      2.014016    1.839863   -1.315249
 H      1.345002    3.377748   -0.037291
 C      3.182502    1.307046   -1.830273
 C      0.857530    1.799047   -2.082911
 C      3.200270    0.746484   -3.100667
 H      4.096275    1.331613   -1.252525
 C      0.863778    1.232755   -3.343602
 H     -0.050097    2.221471   -1.682823
 C      2.041527    0.705370   -3.859597
 H      4.127899    0.342575   -3.496173
 H     -0.048679    1.213114   -3.932354
 H      2.055308    0.267233   -4.853783
 C      3.212764    2.770115    0.731286
 C      2.981332    3.418366    2.030326
 H      3.806143    3.442389    0.100085
 H      3.792379    1.862419    0.885762
 C      2.767107    3.941686    3.088895
 H      2.591322    4.413467    4.026624
 Cl    -1.115083    1.470587    3.125826
 Cl    -0.844222    3.506765    0.896726
 O     -1.314986    1.154439   -0.136371
 O     -0.195357   -0.220239    1.419424
 C     -1.220701   -1.024615   -0.795910
 C      0.228921   -1.023112   -0.631592
 C      1.909755   -1.043046    1.034197
 C     -3.292551    0.100796   -0.556216
 C     -3.967732   -1.055270   -0.956552
 C     -1.856715   -2.163051   -1.234332
 C     -3.238470   -2.178891   -1.300401
 C      1.098917   -1.496186   -1.580272
 C      2.420335   -1.682213   -1.220262
 C      2.835839   -1.485815    0.085800
 H     -1.266552   -3.033890   -1.486388
 H     -3.755019   -3.078263   -1.615336
 H      0.741939   -1.710002   -2.577552
 H      3.133457   -2.028438   -1.956792
 C      4.242963   -1.780107    0.453533
 C      2.170729   -1.072873    2.511905
 N     -1.951473    0.050371   -0.451958
 N      0.677862   -0.752548    0.602737
 C     -4.012110    1.396620   -0.326081
 C     -5.450907   -1.092785   -1.034407
 C     -6.217737   -0.982869    0.120271
 C     -6.073870   -1.263973   -2.264793
 C     -8.221635   -1.200859   -1.188332
 C     -7.457523   -1.313291   -2.342027
 C     -7.599838   -1.038471    0.043495
 H     -5.736301   -0.858869    1.082822
 H     -8.193335   -0.955373    0.949545
 H     -9.305703   -1.241989   -1.248267
 H     -7.939011   -1.440858   -3.307414
 H     -5.480381   -1.347300   -3.168136
 C      4.789580   -3.021545    0.145249
 C      5.032865   -0.822836    1.079807
 C      6.892652   -2.343565    1.090530
 C      6.352533   -1.100606    1.395624
 C      6.108181   -3.304064    0.466354
 H      4.180366   -3.778611   -0.334438
 H      6.523161   -4.279210    0.227459
 H      7.926984   -2.563415    1.340113
 H      6.960398   -0.343134    1.882226
 H      4.618196    0.144867    1.320836
 C      2.234646    0.282936    3.177277
 C      1.154035   -1.986640    3.185262
 H      3.153148   -1.542486    2.605941
 C     -3.545086    2.463486   -1.304609
 H     -5.055404    1.173896   -0.559032
 C     -3.946857    1.836855    1.123305
 H     -4.188540    3.338130   -1.211418
 H     -2.529098    2.770860   -1.104865
 H     -3.615507    2.110176   -2.333608
 H     -2.948678    2.134725    1.397704
 H     -4.604359    2.692010    1.271256
 H     -4.273656    1.045260    1.795718
 H      2.570817    0.156002    4.205955
 H      2.924525    0.948765    2.679300
 H      1.267269    0.753307    3.194535
 H      0.159753   -1.563952    3.141565
 H      1.139032   -2.974544    2.724642
 H      1.425385   -2.117678    4.232561
