83

 Si    -0.256498    0.984635   -0.089826
 O      0.303584    2.313253    0.684047
 C     -0.027099    3.582150    1.146516
 C     -1.510240    3.823107    1.103444
 H      0.297724    3.627504    2.191828
 C     -2.172575    3.956382   -0.107758
 C     -2.236360    3.890191    2.282236
 C     -3.542783    4.137546   -0.145543
 H     -1.611490    3.909529   -1.028975
 C     -3.611031    4.074491    2.252870
 H     -1.728239    3.796759    3.235103
 C     -4.267878    4.194612    1.037986
 H     -4.046679    4.239479   -1.102117
 H     -4.168321    4.126730    3.183690
 H     -5.343942    4.341135    1.011781
 C      0.732716    4.621064    0.349103
 C      2.167816    4.668967    0.678715
 H      0.321188    5.618258    0.545631
 H      0.611455    4.407310   -0.712279
 C      3.331755    4.754300    0.964015
 H      4.362381    4.850351    1.208008
 Cl    -1.993300    0.759628    0.905409
 Cl    -0.145151    1.815407   -1.941969
 O     -0.385926   -0.543073   -0.984425
 O      0.942367    0.162638    0.803638
 C     -0.291105   -2.212761    0.537084
 C      1.158775   -2.068878    0.454969
 C      3.029709   -0.617717    0.369315
 C     -2.273302   -1.817656   -0.698161
 C     -2.958920   -2.708107    0.134405
 C     -0.921442   -3.123612    1.344869
 C     -2.282715   -3.328626    1.167557
 C      1.962295   -3.168826    0.262758
 C      3.323508   -2.982712    0.095947
 C      3.868170   -1.711104    0.135287
 H     -0.354903   -3.654849    2.098734
 H     -2.814902   -4.011599    1.819456
 H      1.512805   -4.151946    0.214405
 H      3.968092   -3.835830   -0.081630
 C      5.330346   -1.533510   -0.056728
 C      3.548803    0.777744    0.532811
 N     -1.001010   -1.536991   -0.385236
 N      1.710759   -0.844381    0.489639
 C     -2.851218   -1.305339   -1.986717
 C     -4.404157   -2.971341   -0.075261
 C     -5.325292   -1.946303    0.106160
 C     -4.841527   -4.241023   -0.432357
 C     -7.112951   -3.455402   -0.441979
 C     -6.194201   -4.481279   -0.619952
 C     -6.677306   -2.188126   -0.075375
 H     -4.985707   -0.960228    0.397854
 H     -7.393090   -1.384263    0.070996
 H     -8.172983   -3.644299   -0.587408
 H     -6.530677   -5.473681   -0.906323
 H     -4.125846   -5.042357   -0.577124
 C      6.217414   -2.077898    0.864442
 C      5.817318   -0.850803   -1.165689
 C      8.068471   -1.245920   -0.422671
 C      7.183193   -0.708867   -1.348958
 C      7.584255   -1.930066    0.684194
 H      5.842720   -2.608780    1.732182
 H      8.272283   -2.352212    1.411149
 H      9.139512   -1.132463   -0.565800
 H      7.557254   -0.177587   -2.219511
 H      5.130600   -0.433340   -1.891856
 C      3.124321    1.649131   -0.632741
 C      3.181743    1.366113    1.884242
 H      4.635268    0.670506    0.499063
 C     -1.895434   -1.606428   -3.134209
 H     -3.751314   -1.910440   -2.129694
 C     -3.272021    0.150781   -1.974505
 H     -2.387600   -1.382074   -4.080212
 H     -1.000217   -1.003391   -3.065307
 H     -1.612351   -2.659023   -3.153889
 H     -2.413796    0.801598   -1.905446
 H     -3.792410    0.370232   -2.906757
 H     -3.948366    0.370971   -1.153716
 H      3.321568    1.167124   -1.588792
 H      2.078418    1.891366   -0.569791
 H      3.678115    2.582867   -0.611256
 H      2.135540    1.621861    1.931177
 H      3.421792    0.675678    2.692481
 H      3.760243    2.273711    2.042747
