89

 Si    -0.623679    0.873547    1.699016
 O     -0.073284    2.236768    1.031996
 C     -0.015593    2.954542   -0.151794
 C      1.288822    2.632104   -0.828003
 H     -0.822537    2.636083   -0.808635
 C      2.389403    3.470994   -0.771813
 C      1.405840    1.415467   -1.488142
 C      3.584932    3.109758   -1.377933
 H      2.325581    4.421539   -0.259850
 C      2.592464    1.047290   -2.094304
 H      0.552575    0.763026   -1.530611
 C      3.688528    1.899417   -2.043946
 H      4.435236    3.784302   -1.332945
 H      2.658190    0.104484   -2.627203
 H      4.618237    1.629280   -2.535606
 C     -0.213980    4.409562    0.196419
 C     -1.535670    4.642105    0.801290
 H     -0.116413    5.040044   -0.695866
 H      0.546327    4.711043    0.917523
 C     -2.608517    4.832484    1.305338
 H     -3.557342    5.015942    1.749948
 Cl    -0.005146    1.435964    3.575055
 Cl    -2.486740    0.365054    2.317973
 O     -0.957271    0.383034    0.014206
 O      0.421869   -0.468294    1.773473
 C     -1.112989   -1.839913    0.083916
 C      0.345407   -1.838811   -0.010063
 C      2.444630   -1.130731    0.881431
 C     -3.023691   -0.538651   -0.470824
 C     -3.827429   -1.653585   -0.203389
 C     -1.857916   -2.981844    0.219028
 C     -3.235240   -2.855982    0.145102
 C      0.954420   -2.593122   -0.982321
 C      2.331577   -2.600269   -1.027368
 C      3.083797   -1.900899   -0.095957
 H     -1.371139   -3.927830    0.416962
 H     -3.866689   -3.714197    0.341409
 H      0.351216   -3.157717   -1.680624
 H      2.842425   -3.180090   -1.786921
 C      4.556116   -2.086083   -0.232465
 C      3.109931   -0.356175    2.011005
 N     -1.720653   -0.668081   -0.154092
 N      1.084841   -1.105907    0.836855
 C     -3.423754    0.732713   -1.202707
 C     -5.307593   -1.579016   -0.151195
 C     -5.899730   -0.786560    0.825470
 C     -6.098930   -2.334454   -1.006564
 C     -8.071593   -1.471777    0.062143
 C     -7.480046   -2.274589   -0.904470
 C     -7.279733   -0.731994    0.931254
 H     -5.278732   -0.214822    1.503933
 H     -7.737906   -0.112264    1.696766
 H     -9.154192   -1.428373    0.143545
 H     -8.096441   -2.859475   -1.581355
 H     -5.639492   -2.958256   -1.764816
 C      5.159286   -3.200070    0.338714
 C      5.306016   -1.214512   -1.009258
 C      7.269468   -2.539663   -0.602835
 C      6.662150   -1.438029   -1.190368
 C      6.515408   -3.422699    0.159069
 H      4.573958   -3.891214    0.934314
 H      6.983527   -4.291693    0.612863
 H      8.332009   -2.715629   -0.745809
 H      7.245526   -0.750092   -1.795816
 H      4.833311   -0.353981   -1.462582
 C     -4.782009    0.614274   -1.894062
 C     -3.457206    1.939188   -0.279445
 C     -2.393813    0.921571   -2.322097
 H     -4.907717    1.478499   -2.542809
 H     -4.852536   -0.269654   -2.519569
 H     -5.612415    0.616514   -1.202827
 H     -3.712367    2.824138   -0.855718
 H     -4.209166    1.823324    0.494012
 H     -2.510630    2.116223    0.197181
 H     -2.627682    1.818085   -2.889454
 H     -1.391791    1.027494   -1.946333
 H     -2.414218    0.085875   -3.018617
 C      2.823960    1.123820    1.793693
 C      2.592721   -0.901774    3.343587
 C      4.630144   -0.492116    2.068383
 H      5.126291   -0.097125    1.192987
 H      4.976513    0.092613    2.917442
 H      4.959042   -1.510211    2.231729
 H      1.780639    1.357848    1.744898
 H      3.240610    1.700837    2.612602
 H      3.292461    1.465109    0.878358
 H      1.530210   -0.796245    3.471326
 H      2.856446   -1.952862    3.448405
 H      3.069550   -0.364624    4.158760
