89

 Si    -0.198741    1.657001    0.896937
 O      1.343810    1.567789    0.440839
 C      2.357829    2.023279   -0.374446
 C      2.111567    1.571886   -1.784991
 H      3.260709    1.526221   -0.012631
 C      0.849318    1.692130   -2.337864
 C      3.127937    0.996299   -2.533422
 C      0.585653    1.211572   -3.607470
 H      0.070798    2.158329   -1.763710
 C      2.875725    0.524041   -3.813154
 H      4.123927    0.906324   -2.116255
 C      1.600163    0.621249   -4.350025
 H     -0.413223    1.307092   -4.022520
 H      3.678755    0.073290   -4.389757
 H      1.398861    0.245458   -5.349451
 C      2.591899    3.510220   -0.258390
 C      2.843439    3.886909    1.141145
 H      3.464040    3.782739   -0.865674
 H      1.731389    4.061630   -0.631242
 C      3.043408    4.163816    2.291900
 H      3.223336    4.430843    3.305979
 Cl    -0.801056    1.918563    2.803513
 Cl    -0.598722    3.563900    0.256222
 O     -1.237836    1.108758   -0.332838
 O     -0.039431   -0.052929    1.328671
 C     -1.223394   -1.121140   -0.626456
 C      0.236617   -1.085996   -0.616545
 C      2.041077   -0.982570    0.932522
 C     -3.286493    0.051772   -0.387454
 C     -3.952625   -1.179140   -0.381484
 C     -1.869212   -2.325818   -0.762256
 C     -3.238794   -2.347501   -0.597204
 C      1.025377   -1.615331   -1.600795
 C      2.376150   -1.727290   -1.333385
 C      2.894502   -1.437111   -0.080827
 H     -1.294104   -3.226797   -0.927950
 H     -3.769826   -3.291769   -0.618105
 H      0.593534   -1.911851   -2.546666
 H      3.046100   -2.084884   -2.104100
 C      4.364175   -1.603682    0.071438
 C      2.342994   -0.888390    2.422879
 N     -1.931312   -0.002387   -0.410555
 N      0.780188   -0.714950    0.551480
 C     -3.932777    1.429739   -0.451984
 C     -5.398673   -1.350822   -0.081560
 C     -5.844721   -1.170846    1.222539
 C     -6.283165   -1.774049   -1.065157
 C     -8.066132   -1.789006    0.546591
 C     -7.617106   -1.985175   -0.752836
 C     -7.177174   -1.387450    1.535296
 H     -5.153003   -0.858088    1.995764
 H     -7.521334   -1.244408    2.555697
 H     -9.111129   -1.957669    0.791507
 H     -8.307361   -2.307600   -1.527292
 H     -5.935970   -1.925234   -2.080932
 C      4.932878   -2.862947   -0.081069
 C      5.185226   -0.503900    0.288292
 C      7.122921   -1.923870    0.230280
 C      6.559301   -0.662145    0.367789
 C      6.306871   -3.024283    0.005180
 H      4.300380   -3.726066   -0.253231
 H      6.740815   -4.013898   -0.107280
 H      8.200295   -2.048626    0.294165
 H      7.191395    0.204817    0.538082
 H      4.756284    0.479811    0.406822
 C     -5.438135    1.390454   -0.714735
 C     -3.703988    2.143076    0.871942
 C     -3.334536    2.185043   -1.642811
 H     -5.774622    2.413313   -0.867492
 H     -5.689360    0.834642   -1.611246
 H     -6.010045    0.997104    0.112529
 H     -4.152723    3.131805    0.841526
 H     -4.164202    1.597710    1.692672
 H     -2.659538    2.272169    1.089875
 H     -3.821328    3.152267   -1.731435
 H     -2.279979    2.368874   -1.548463
 H     -3.516061    1.644681   -2.569834
 C      2.508669    0.559789    2.850930
 C      1.192564   -1.556435    3.184576
 C      3.600689   -1.666763    2.814908
 H      4.515842   -1.197352    2.486295
 H      3.645158   -1.711978    3.900600
 H      3.583597   -2.689354    2.452018
 H      1.601701    1.120513    2.719891
 H      2.775479    0.595842    3.904625
 H      3.295985    1.054701    2.295738
 H      0.252227   -1.049348    3.056542
 H      1.074963   -2.594855    2.881776
 H      1.421317   -1.555760    4.247007
