89

 Si    -0.214948    0.954900    1.083785
 O     -1.349218    2.139115    1.079267
 C     -1.995041    3.018117    0.229427
 C     -1.039020    3.534695   -0.809813
 H     -2.786360    2.474417   -0.288323
 C     -0.312197    4.699870   -0.631390
 C     -0.817043    2.771850   -1.947640
 C      0.630275    5.093775   -1.568182
 H     -0.472374    5.308062    0.247956
 C      0.125318    3.154578   -2.885828
 H     -1.384676    1.867447   -2.097534
 C      0.856366    4.318807   -2.695869
 H      1.189570    6.011974   -1.414613
 H      0.282343    2.549766   -3.774080
 H      1.593858    4.628088   -3.431133
 C     -2.636138    4.079934    1.087432
 C     -3.688420    3.505411    1.942589
 H     -3.082400    4.867353    0.467783
 H     -1.877584    4.533530    1.725539
 C     -4.552536    3.036324    2.632080
 H     -5.324273    2.648213    3.252529
 Cl     1.327187    2.169867    0.611244
 Cl    -0.503603    0.474600    3.019007
 O      0.763223   -0.516774    0.985697
 O     -1.105955    0.276018   -0.217233
 C      1.098991   -0.769827   -1.215247
 C     -0.145753   -1.530059   -1.149456
 C     -2.378323   -1.653738   -0.332016
 C      2.928198   -0.257854    0.218414
 C      3.655447    0.151738   -0.908873
 C      1.825197   -0.510885   -2.342662
 C      3.090231    0.034659   -2.166133
 C     -0.170453   -2.838745   -1.566227
 C     -1.279880   -3.593295   -1.247291
 C     -2.367397   -3.027923   -0.598368
 H      1.402552   -0.698785   -3.321233
 H      3.664406    0.350804   -3.028762
 H      0.696482   -3.263195   -2.055044
 H     -1.298728   -4.651233   -1.480222
 C     -3.426042   -3.974038   -0.160047
 C     -3.597171   -0.812173    0.019098
 N      1.632090   -0.530662   -0.003949
 N     -1.211494   -0.994349   -0.538785
 C      3.466559   -0.572635    1.607394
 C      4.969068    0.830366   -0.800971
 C      5.035172    2.053591   -0.144274
 C      6.106254    0.299428   -1.395902
 C      7.381429    2.191226   -0.639426
 C      7.312696    0.976274   -1.308824
 C      6.239714    2.732387   -0.062179
 H      4.140934    2.473738    0.298162
 H      6.286254    3.688219    0.451780
 H      8.327210    2.721945   -0.573445
 H      8.202357    0.553400   -1.766933
 H      6.056418   -0.651950   -1.913030
 C     -4.195622   -4.661742   -1.090084
 C     -3.576363   -4.238714    1.196159
 C     -5.294186   -5.841525    0.692517
 C     -4.510073   -5.170194    1.621528
 C     -5.134331   -5.587921   -0.663710
 H     -4.075257   -4.463561   -2.149096
 H     -5.740216   -6.116505   -1.394250
 H     -6.027292   -6.570765    1.026049
 H     -4.623301   -5.373640    2.682610
 H     -2.965158   -3.716914    1.923084
 C      4.985525   -0.748334    1.594169
 C      3.099435    0.487523    2.633391
 C      2.875156   -1.927690    2.016387
 H      5.290063   -1.162712    2.552712
 H      5.314925   -1.441522    0.825932
 H      5.518736    0.183267    1.470692
 H      3.530669    0.212892    3.593687
 H      3.493275    1.461459    2.361380
 H      2.031012    0.567029    2.759068
 H      3.287327   -2.224073    2.977202
 H      1.802784   -1.893193    2.121221
 H      3.135054   -2.706198    1.301631
 C     -3.427920   -0.153724    1.379557
 C     -3.741995    0.206417   -1.113601
 C     -4.910323   -1.592661    0.046096
 H     -4.987954   -2.266762    0.887623
 H     -5.718920   -0.871650    0.143682
 H     -5.089211   -2.148181   -0.866635
 H     -2.668393    0.602836    1.386800
 H     -4.357308    0.328211    1.664016
 H     -3.197418   -0.890573    2.143908
 H     -2.850429    0.785640   -1.265686
 H     -3.992075   -0.289874   -2.049461
 H     -4.548987    0.896987   -0.886822
