89

 Si    -0.392475    1.384050    1.329734
 O      1.204795    1.440855    1.057584
 C      2.013474    2.455185    0.551622
 C      2.264761    2.135353   -0.893713
 H      1.465335    3.396058    0.593511
 C      3.489336    1.733481   -1.396152
 C      1.179625    2.229787   -1.755408
 C      3.631955    1.430325   -2.743927
 H      4.350066    1.661659   -0.746501
 C      1.311290    1.924919   -3.096779
 H      0.228167    2.549564   -1.362615
 C      2.544200    1.523190   -3.597279
 H      4.601646    1.122628   -3.124907
 H      0.453756    2.010587   -3.757772
 H      2.656170    1.287621   -4.652033
 C      3.227529    2.597810    1.428218
 C      2.836927    2.954812    2.799764
 H      3.890843    3.375454    1.031362
 H      3.785003    1.664983    1.455644
 C      2.491448    3.238550    3.913473
 H      2.198723    3.498559    4.903083
 Cl    -1.285560    1.001047    3.100326
 Cl    -0.782625    3.401085    1.319394
 O     -1.221897    1.275057   -0.151965
 O     -0.222460   -0.374330    1.217854
 C     -1.143765   -0.764373   -1.100654
 C      0.302971   -0.782924   -0.898959
 C      1.892950   -1.222395    0.816968
 C     -3.232514    0.346106   -0.798182
 C     -3.880797   -0.813888   -1.237558
 C     -1.754038   -1.856496   -1.668554
 C     -3.132872   -1.887888   -1.693506
 C      1.206551   -1.046746   -1.892771
 C      2.507399   -1.303932   -1.510667
 C      2.861554   -1.418727   -0.174661
 H     -1.152705   -2.685153   -2.017041
 H     -3.646310   -2.769580   -2.058211
 H      0.894774   -1.043966   -2.927547
 H      3.264051   -1.470172   -2.265535
 C      4.289294   -1.740430    0.088094
 C      1.979916   -1.599766    2.291213
 N     -1.885705    0.261182   -0.656077
 N      0.695453   -0.788657    0.381957
 C     -3.884704    1.698981   -0.541574
 C     -5.351289   -1.024477   -1.183492
 C     -5.964596   -1.198154    0.051776
 C     -6.096832   -1.136319   -2.349978
 C     -8.073880   -1.544669   -1.045657
 C     -7.458127   -1.388298   -2.280560
 C     -7.324397   -1.455479    0.120283
 H     -5.382017   -1.129823    0.962743
 H     -7.799420   -1.589315    1.088041
 H     -9.140387   -1.744985   -0.991902
 H     -8.039091   -1.465956   -3.195239
 H     -5.619415   -1.011479   -3.315190
 C      4.813502   -2.951564   -0.348880
 C      5.125314   -0.811702    0.693105
 C      6.987036   -2.310261    0.451875
 C      6.469573   -1.093229    0.875386
 C      6.156377   -3.238956   -0.160893
 H      4.169140   -3.681457   -0.825019
 H      6.555404   -4.191535   -0.498076
 H      8.040539   -2.533452    0.595802
 H      7.114116   -0.358986    1.350331
 H      4.725695    0.131609    1.031610
 C     -5.325427    1.786014   -1.046725
 C     -3.888275    1.963363    0.956435
 C     -3.119708    2.766925   -1.329571
 H     -5.653329    2.817309   -0.939314
 H     -5.412679    1.530644   -2.097282
 H     -6.019020    1.182006   -0.481479
 H     -4.331436    2.934017    1.160077
 H     -4.477392    1.215257    1.481763
 H     -2.895712    1.969398    1.369980
 H     -3.624134    3.722186   -1.214033
 H     -2.106794    2.903071   -0.998004
 H     -3.114168    2.530661   -2.391743
 C      2.011571   -0.361293    3.168671
 C      0.761241   -2.472612    2.613981
 C      3.203192   -2.456110    2.618542
 H      4.132243   -1.906372    2.579837
 H      3.095850   -2.818737    3.638325
 H      3.285296   -3.326517    1.976657
 H      1.113730    0.219220    3.075776
 H      2.110278   -0.658444    4.209776
 H      2.851718    0.275678    2.927554
 H     -0.171999   -1.950745    2.489930
 H      0.748163   -3.368272    1.996048
 H      0.818010   -2.797626    3.649485
