89

 Si     0.311037    1.592164   -0.163406
 O     -1.198889    1.312957    0.355413
 C     -1.935655    1.888473    1.389392
 C     -3.134524    2.557717    0.786792
 H     -1.325745    2.656190    1.866788
 C     -2.891363    3.475878   -0.228732
 C     -4.440184    2.315884    1.178866
 C     -3.935242    4.123169   -0.861669
 H     -1.870991    3.681209   -0.518399
 C     -5.494385    2.966290    0.549538
 H     -4.654547    1.626073    1.984249
 C     -5.245994    3.864401   -0.475456
 H     -3.727630    4.835561   -1.654778
 H     -6.513819    2.770148    0.869268
 H     -6.070439    4.371994   -0.968260
 C     -2.210590    0.824514    2.419451
 C     -0.956050    0.341281    3.016017
 H     -2.834719    1.226249    3.224972
 H     -2.743701   -0.009681    1.969883
 C      0.071445   -0.031750    3.511432
 H      0.971334   -0.359737    3.970457
 Cl     0.781802    2.341789   -1.981917
 Cl     0.693475    3.325064    0.871244
 O      1.416756    0.796351    0.850856
 O      0.190716    0.044830   -1.016871
 C      1.539292   -1.432147    0.537405
 C      0.081266   -1.504019    0.573298
 C     -1.804345   -1.099826   -0.818470
 C      3.519787   -0.103776    0.571751
 C      4.255870   -1.241545    0.222265
 C      2.260608   -2.583343    0.331105
 C      3.621218   -2.470485    0.135457
 C     -0.624442   -2.349304    1.388404
 C     -1.981661   -2.464872    1.157769
 C     -2.581338   -1.861041    0.063183
 H      1.745823   -3.532006    0.260882
 H      4.206202   -3.349150   -0.108981
 H     -0.125928   -2.871896    2.193485
 H     -2.591941   -3.058949    1.827178
 C     -4.052786   -2.006654   -0.060467
 C     -2.178208   -0.655078   -2.226759
 N      2.170840   -0.250048    0.613284
 N     -0.544269   -0.856193   -0.418924
 C      4.089824    1.250514    0.972812
 C      5.696014   -1.230551   -0.146942
 C      6.078055   -0.681392   -1.365354
 C      6.642538   -1.839649    0.666676
 C      8.357231   -1.306071   -0.930806
 C      7.972959   -1.870214    0.278575
 C      7.407249   -0.717050   -1.755232
 H      5.338757   -0.222039   -2.010697
 H      7.701217   -0.285381   -2.707790
 H      9.399663   -1.332789   -1.235867
 H      8.711399   -2.339736    0.922346
 H      6.345917   -2.278267    1.612615
 C     -4.632222   -3.263443   -0.184305
 C     -4.860971   -0.879416    0.017328
 C     -6.816187   -2.259111   -0.184234
 C     -6.238599   -1.003605   -0.043964
 C     -6.011130   -3.388360   -0.253476
 H     -4.007107   -4.146849   -0.244547
 H     -6.457974   -4.372942   -0.359456
 H     -7.896999   -2.358214   -0.234992
 H     -6.861792   -0.116439    0.017426
 H     -4.415205    0.098402    0.118939
 C      3.491155    1.649299    2.325528
 C      5.602500    1.239709    1.195830
 C      3.783688    2.249378   -0.133089
 H      3.913113    2.602088    2.632814
 H      2.422937    1.765149    2.311277
 H      3.754717    0.918235    3.087453
 H      5.883969    2.208962    1.600901
 H      5.910881    0.490561    1.916694
 H      6.172554    1.106933    0.288525
 H      4.154568    3.232625    0.141240
 H      4.270840    1.960215   -1.061508
 H      2.729040    2.344058   -0.317264
 C     -2.449258    0.837140   -2.264302
 C     -1.022761   -1.027375   -3.163272
 C     -3.400655   -1.399447   -2.767932
 H     -4.328777   -1.092087   -2.310343
 H     -3.487513   -1.179219   -3.829461
 H     -3.304104   -2.476196   -2.670848
 H     -1.573781    1.402458   -2.002909
 H     -2.748512    1.127618   -3.268574
 H     -3.248366    1.112122   -1.588921
 H     -0.111145   -0.502610   -2.936560
 H     -0.828076   -2.097479   -3.137077
 H     -1.297736   -0.776218   -4.184252
