89

 Si    -0.565033    0.990306    1.483724
 O     -0.105732    2.110507    0.423281
 C      0.689096    3.230895    0.287734
 C      1.848958    2.878767   -0.602535
 H      1.056275    3.550308    1.267282
 C      1.709781    1.832289   -1.500212
 C      3.051498    3.567039   -0.535820
 C      2.762852    1.463774   -2.320181
 H      0.770946    1.304413   -1.540477
 C      4.110509    3.202465   -1.355383
 H      3.167750    4.386054    0.166368
 C      3.969556    2.149197   -2.247449
 H      2.640050    0.645867   -3.024346
 H      5.050118    3.744721   -1.294667
 H      4.797571    1.867514   -2.891793
 C     -0.157027    4.334797   -0.307760
 C     -1.311691    4.643576    0.550350
 H      0.442431    5.243467   -0.441251
 H     -0.514334    4.020277   -1.289996
 C     -2.247221    4.871183    1.267377
 H     -3.073399    5.092023    1.899885
 Cl     0.153769    1.899601    3.182531
 Cl    -2.465634    0.826024    2.156835
 O     -0.890207    0.111289   -0.036228
 O      0.323468   -0.406123    1.907755
 C     -1.393508   -1.973606    0.568886
 C      0.052233   -2.180117    0.531169
 C      2.234392   -1.429955    1.126113
 C     -3.047554   -0.579981   -0.427870
 C     -4.030347   -1.466889    0.029608
 C     -2.316672   -2.922692    0.918635
 C     -3.651564   -2.616937    0.703676
 C      0.563012   -3.196149   -0.239925
 C      1.929153   -3.250484   -0.420273
 C      2.769482   -2.357465    0.225431
 H     -1.998695   -3.850864    1.375936
 H     -4.420842   -3.298232    1.047283
 H     -0.110974   -3.879457   -0.739148
 H      2.357085   -3.986685   -1.090248
 C      4.202931   -2.415304   -0.161864
 C      3.021369   -0.593148    2.126540
 N     -1.799866   -0.823727    0.008929
 N      0.881419   -1.322145    1.147502
 C     -3.192677    0.534741   -1.452310
 C     -5.481098   -1.173196   -0.062306
 C     -5.989002   -0.093010    0.650282
 C     -6.338036   -1.993478   -0.784225
 C     -8.201262   -0.629732   -0.116164
 C     -7.696126   -1.717182   -0.816706
 C     -7.346842    0.179029    0.622551
 H     -5.320078    0.533315    1.227459
 H     -7.739239    1.023581    1.181753
 H     -9.266235   -0.415795   -0.139934
 H     -8.362524   -2.355765   -1.389694
 H     -5.945312   -2.840358   -1.335331
 C      4.984436   -3.516034    0.164464
 C      4.735221   -1.389973   -0.934750
 C      6.841355   -2.543990   -1.011914
 C      6.053098   -1.453582   -1.356820
 C      6.304701   -3.576288   -0.253771
 H      4.569183   -4.321441    0.759515
 H      6.915287   -4.434735    0.011675
 H      7.875506   -2.593066   -1.341493
 H      6.465220   -0.649027   -1.958928
 H      4.125270   -0.537206   -1.204095
 C     -4.521700    0.464631   -2.203429
 C     -3.052686    1.913059   -0.824986
 C     -2.091268    0.313947   -2.495539
 H     -4.479112    1.162380   -3.036875
 H     -4.710587   -0.520233   -2.618758
 H     -5.367415    0.752158   -1.595223
 H     -3.202418    2.667748   -1.592662
 H     -3.799842    2.079933   -0.056504
 H     -2.077270    2.063841   -0.398441
 H     -2.178267    1.061408   -3.279421
 H     -1.104572    0.401681   -2.072445
 H     -2.184563   -0.660582   -2.970972
 C      2.979042    0.854928    1.668294
 C      2.423460   -0.806993    3.521083
 C      4.486949   -1.008945    2.257996
 H      5.081336   -0.785392    1.385246
 H      4.918743   -0.443361    3.080432
 H      4.599248   -2.060333    2.499616
 H      1.974279    1.215434    1.557961
 H      3.473016    1.491169    2.396182
 H      3.494436    0.972571    0.721977
 H      1.410444   -0.461866    3.618783
 H      2.464473   -1.859381    3.794823
 H      3.018028   -0.261005    4.248193
