89

 Si    -0.364669    0.699587    1.574946
 O     -0.008622    1.993975    0.678907
 C     -0.143782    2.584757   -0.557277
 C     -0.610643    4.000691   -0.376024
 H     -0.872874    2.046714   -1.158341
 C     -0.288085    4.680039    0.787132
 C     -1.350874    4.639209   -1.362641
 C     -0.707524    5.987671    0.972866
 H      0.277518    4.171187    1.554106
 C     -1.768108    5.949544   -1.183438
 H     -1.603149    4.113280   -2.277357
 C     -1.447819    6.625779   -0.014137
 H     -0.455093    6.509318    1.891478
 H     -2.346713    6.443257   -1.959176
 H     -1.776056    7.651573    0.128467
 C      1.183915    2.527942   -1.280063
 C      1.520371    1.160981   -1.712664
 H      1.151845    3.156652   -2.177618
 H      1.964414    2.915350   -0.625860
 C      1.756850    0.059072   -2.126542
 H      1.980073   -0.896445   -2.526911
 Cl    -2.156013    0.153247    2.347528
 Cl     0.264558    1.627875    3.300817
 O     -0.660690   -0.101556    0.018867
 O      0.803296   -0.508596    1.839883
 C     -0.661884   -2.287074    0.491949
 C      0.790557   -2.207574    0.359870
 C      2.825343   -1.088178    0.901549
 C     -2.652195   -1.229372   -0.267376
 C     -3.383497   -2.328698    0.196978
 C     -1.334548   -3.429286    0.839842
 C     -2.716364   -3.407639    0.753660
 C      1.441657   -3.092669   -0.463993
 C      2.791790   -2.908809   -0.675150
 C      3.483808   -1.894059   -0.034061
 H     -0.789132   -4.290058    1.204312
 H     -3.291915   -4.255137    1.106167
 H      0.880440   -3.868121   -0.968062
 H      3.320731   -3.546303   -1.373713
 C      4.890502   -1.699221   -0.473874
 C      3.479470   -0.112674    1.870960
 N     -1.344121   -1.216791    0.053619
 N      1.480225   -1.242784    0.988037
 C     -3.133630   -0.122593   -1.192178
 C     -4.865878   -2.345266    0.237983
 C     -5.520505   -1.439891    1.065051
 C     -5.595590   -3.287277   -0.475351
 C     -7.633394   -2.388964    0.429073
 C     -6.978740   -3.303850   -0.385278
 C     -6.902305   -1.460644    1.159383
 H     -4.946984   -0.721371    1.637305
 H     -7.409305   -0.751810    1.807863
 H     -8.717405   -2.404619    0.501136
 H     -7.547075   -4.036135   -0.951810
 H     -5.087032   -3.999139   -1.115472
 C      5.874905   -2.619972   -0.139789
 C      5.192662   -0.628929   -1.307587
 C      7.474105   -1.373504   -1.430593
 C      6.483880   -0.465451   -1.783035
 C      7.167594   -2.452381   -0.611697
 H      5.638502   -3.461556    0.501429
 H      7.937172   -3.169885   -0.341228
 H      8.486783   -1.244587   -1.802565
 H      6.716375    0.372597   -2.433994
 H      4.419057    0.077451   -1.582951
 C     -4.459556   -0.465479   -1.873376
 C     -3.303148    1.196476   -0.454222
 C     -2.099902   -0.016662   -2.320147
 H     -4.639141    0.269277   -2.655382
 H     -4.439959   -1.441004   -2.348618
 H     -5.306237   -0.424421   -1.203498
 H     -3.611271    1.966726   -1.156748
 H     -4.072900    1.121338    0.307368
 H     -2.394956    1.521469    0.020827
 H     -2.385932    0.776924   -3.004955
 H     -1.106257    0.196856   -1.967341
 H     -2.065042   -0.938347   -2.897307
 C      3.085733    1.299845    1.464768
 C      3.055232   -0.485324    3.295129
 C      5.006885   -0.180763    1.885188
 H      5.464566    0.169006    0.972003
 H      5.358135    0.473491    2.679675
 H      5.376446   -1.175978    2.104836
 H      2.022765    1.444799    1.420260
 H      3.478835    2.013577    2.182663
 H      3.507667    1.542386    0.493926
 H      1.999957   -0.394897    3.475438
 H      3.365658   -1.502111    3.527871
 H      3.556243    0.173932    3.998292
