89

 Si    -0.298482    1.828161    0.634698
 O      1.256434    1.737905    0.184370
 C      1.966724    2.421337   -0.799240
 C      2.075733    1.500607   -1.980243
 H      1.389183    3.291902   -1.109070
 C      0.902612    1.222517   -2.669818
 C      3.254742    0.905488   -2.391663
 C      0.903285    0.362081   -3.751078
 H     -0.013602    1.691932   -2.350475
 C      3.265452    0.043282   -3.480366
 H      4.181433    1.113967   -1.876040
 C      2.090829   -0.232117   -4.161820
 H     -0.021978    0.160701   -4.283008
 H      4.200470   -0.411032   -3.795732
 H      2.099501   -0.904807   -5.015017
 C      3.260123    2.918882   -0.214384
 C      3.003203    3.840802    0.901506
 H      3.845917    3.439688   -0.981085
 H      3.854426    2.085412    0.151399
 C      2.766095    4.584410    1.813109
 H      2.569340    5.252059    2.618171
 Cl    -0.978586    2.265574    2.485530
 Cl    -0.762736    3.645215   -0.203635
 O     -1.276550    1.096053   -0.549543
 O     -0.076650    0.193834    1.278097
 C     -1.226944   -1.153691   -0.522015
 C      0.232710   -1.102677   -0.496282
 C      2.012976   -0.772889    1.048787
 C     -3.310040    0.007151   -0.500464
 C     -3.959372   -1.218958   -0.316907
 C     -1.854743   -2.375393   -0.487965
 C     -3.226223   -2.394925   -0.342322
 C      1.033678   -1.784853   -1.372072
 C      2.376746   -1.866731   -1.066168
 C      2.876409   -1.392937    0.137795
 H     -1.264652   -3.281536   -0.508503
 H     -3.743735   -3.340115   -0.229196
 H      0.612437   -2.229144   -2.262657
 H      3.053867   -2.353996   -1.754667
 C      4.335555   -1.584217    0.350033
 C      2.272381   -0.471693    2.520245
 N     -1.953491   -0.026464   -0.486204
 N      0.760204   -0.556025    0.607176
 C     -3.979232    1.346304   -0.783502
 C     -5.407090   -1.364263   -0.012771
 C     -5.878837   -0.972847    1.234799
 C     -6.268057   -1.963447   -0.923165
 C     -8.079079   -1.733687    0.640189
 C     -7.604248   -2.140669   -0.599773
 C     -7.213455   -1.155295    1.559551
 H     -5.205424   -0.522272    1.954102
 H     -7.577665   -0.846611    2.535346
 H     -9.125974   -1.874985    0.894141
 H     -8.276076   -2.601350   -1.318524
 H     -5.900800   -2.279444   -1.892912
 C      4.857916   -2.870549    0.421663
 C      5.193722   -0.493904    0.397273
 C      7.077088   -1.968466    0.617246
 C      6.559805   -0.682733    0.530208
 C      6.223428   -3.062199    0.562526
 H      4.195996   -3.727864    0.382629
 H      6.621692   -4.070977    0.626321
 H      8.147876   -2.118306    0.723790
 H      7.221533    0.178031    0.566472
 H      4.795327    0.507055    0.338985
 C     -5.467758    1.225271   -1.112456
 C     -3.832897    2.233904    0.443215
 C     -3.341508    1.956368   -2.035580
 H     -5.819477    2.205180   -1.426565
 H     -5.656937    0.539940   -1.931660
 H     -6.075085    0.936133   -0.268115
 H     -4.284918    3.203579    0.254998
 H     -4.336910    1.796354    1.301812
 H     -2.802876    2.403460    0.701328
 H     -3.865324    2.873649   -2.289508
 H     -2.304804    2.209357   -1.910443
 H     -3.439613    1.282291   -2.884143
 C      2.357930    1.024710    2.761630
 C      1.126867   -1.095174    3.326539
 C      3.552325   -1.121462    3.046472
 H      4.452586   -0.658992    2.669122
 H      3.568861   -1.003614    4.127560
 H      3.593442   -2.185482    2.839973
 H      1.437314    1.522427    2.523692
 H      2.575842    1.209921    3.810507
 H      3.147097    1.477417    2.176686
 H      0.168810   -0.661064    3.097864
 H      1.073868   -2.169653    3.162602
 H      1.310039   -0.940802    4.386601
