69

 Si    -0.040860    0.984330    1.293559
 O      0.874625    1.501880    0.068908
 C      1.454186    2.741352   -0.190554
 C      0.377287    3.785266   -0.223316
 H      2.168698    2.982296    0.600176
 C     -0.764105    3.548922   -0.974212
 C      0.488902    4.959287    0.503858
 C     -1.787104    4.479420   -1.003005
 H     -0.848197    2.623800   -1.525803
 C     -0.534191    5.896219    0.478041
 H      1.374222    5.142596    1.102370
 C     -1.673037    5.658196   -0.275856
 H     -2.675909    4.292642   -1.596476
 H     -0.440795    6.813059    1.052928
 H     -2.474645    6.391049   -0.297464
 C      2.178341    2.629801   -1.510814
 C      3.318505    1.699098   -1.449782
 H      2.556957    3.611877   -1.820331
 H      1.474716    2.284111   -2.269329
 C      4.269048    0.966847   -1.399009
 H      5.117511    0.330679   -1.365406
 Cl    -1.930898    1.489499    1.800235
 Cl     0.826279    2.015290    2.846233
 O     -0.710242   -0.068607   -0.052203
 O      0.560078   -0.499894    1.887671
 C     -1.068211   -2.178089    0.665126
 C      0.376835   -2.308831    0.525745
 C      2.478024   -1.278324    0.890409
 C     -2.878112   -0.833961   -0.035058
 C     -3.782984   -1.826416    0.359908
 C     -1.920483   -3.180089    1.064971
 C     -3.288047   -2.978460    0.949038
 C      0.964481   -3.305858   -0.217845
 C      2.336253   -3.280948   -0.407881
 C      3.113916   -2.271470    0.137243
 H     -1.509594   -4.103383    1.454828
 H     -3.977018   -3.750338    1.271194
 H      0.344221   -4.077612   -0.655905
 H      2.812112   -4.062777   -0.988186
 C      4.578638   -2.248276   -0.067041
 C      3.165774   -0.196228    1.505843
 N     -1.565884   -1.013903    0.205295
 N      1.142354   -1.346192    1.058579
 C     -3.269535    0.350422   -0.731125
 C     -5.236368   -1.631339    0.158968
 C     -6.096846   -1.715761    1.248214
 C     -5.747921   -1.378355   -1.108287
 C     -7.968305   -1.282996   -0.194690
 C     -7.111085   -1.207468   -1.285047
 C     -7.459703   -1.536492    1.072412
 H     -5.701764   -1.905593    2.239551
 H     -8.125665   -1.595176    1.928548
 H     -9.037189   -1.145795   -0.333601
 H     -7.505469   -1.016628   -2.278989
 H     -5.083912   -1.325249   -1.961031
 C      5.444965   -2.099198    1.009273
 C      5.094360   -2.392850   -1.351694
 C      7.326067   -2.214461   -0.481579
 C      6.463521   -2.370063   -1.559421
 C      6.814798   -2.083521    0.802844
 H      5.053009   -2.006178    2.013094
 H      7.485097   -1.971378    1.650231
 H      8.400502   -2.198613   -0.643167
 H      6.857578   -2.472459   -2.566494
 H      4.425005   -2.498772   -2.197160
 C     -3.623493    1.303660   -1.364817
 H     -3.944752    2.148993   -1.927811
 C      3.768344    0.709396    2.007204
 H      4.297110    1.518015    2.457894
