69

 Si    -0.644535    1.374725    1.486344
 O      0.354624    1.919444    0.353818
 C      1.418801    2.760500    0.130769
 C      2.410571    2.033229   -0.737401
 H      1.881944    3.042785    1.081713
 C      1.983911    0.934055   -1.463751
 C      3.719789    2.474935   -0.872358
 C      2.853655    0.273469   -2.316536
 H      0.958070    0.618254   -1.366633
 C      4.590275    1.825078   -1.734659
 H      4.059917    3.336663   -0.307635
 C      4.159815    0.721429   -2.457889
 H      2.507013   -0.583088   -2.886848
 H      5.610945    2.181973   -1.839614
 H      4.842293    0.212338   -3.132177
 C      0.909089    4.003422   -0.571120
 C     -0.125570    4.688090    0.219696
 H      1.732661    4.700358   -0.764522
 H      0.480357    3.710900   -1.531777
 C     -0.973795    5.227394    0.876096
 H     -1.718361    5.712719    1.460466
 Cl     0.147611    2.322671    3.124068
 Cl    -2.565730    1.833910    1.925598
 O     -1.220106    0.444290    0.014681
 O     -0.169779   -0.174314    2.036153
 C     -1.672888   -1.709041    0.486331
 C     -0.221761   -1.852784    0.500791
 C      1.838667   -0.960712    1.253144
 C     -3.394838   -0.248892   -0.207759
 C     -4.351170   -1.246949    0.008554
 C     -2.573832   -2.731346    0.679696
 C     -3.921932   -2.481062    0.473383
 C      0.437992   -2.796145   -0.253681
 C      1.822055   -2.813837   -0.252472
 C      2.547165   -1.902412    0.499691
 H     -2.216130   -3.702534    0.999190
 H     -4.649651   -3.262037    0.659212
 H     -0.136941   -3.493395   -0.849999
 H      2.349207   -3.542730   -0.856426
 C      4.023560   -1.947275    0.538911
 C      2.466421   -0.016911    2.112935
 N     -2.111892   -0.493680    0.115613
 N      0.490907   -0.971202    1.217799
 C     -3.679092    1.000065   -0.840109
 C     -5.778239   -0.967408   -0.253570
 C     -6.369284    0.177447    0.270181
 C     -6.539415   -1.853290   -1.009173
 C     -8.465225   -0.445578   -0.724244
 C     -7.878489   -1.589984   -1.248552
 C     -7.709551    0.436295    0.038159
 H     -5.783849    0.861419    0.870677
 H     -8.165965    1.328780    0.456390
 H     -9.516292   -0.240836   -0.908862
 H     -8.465245   -2.281240   -1.846722
 H     -6.083142   -2.743256   -1.426697
 C      4.670122   -3.170806    0.695742
 C      4.774713   -0.786305    0.415209
 C      6.799448   -2.063304    0.606176
 C      6.157387   -0.843033    0.443690
 C      6.053106   -3.228108    0.733965
 H      4.093358   -4.081157    0.808203
 H      6.549380   -4.185288    0.865802
 H      7.884863   -2.107767    0.633136
 H      6.734815    0.070090    0.336341
 H      4.281528    0.159919    0.272109
 C     -3.904337    2.017250   -1.432602
 H     -4.115482    2.923289   -1.953768
 C      3.021763    0.749010    2.847862
 H      3.504722    1.441516    3.499259
