69

 Si    -0.917330    0.771522   -0.200685
 O     -0.888344    2.123484    0.719167
 C     -0.151498    3.278290    0.780958
 C     -0.979938    4.433942    0.295505
 H      0.729841    3.190254    0.147222
 C     -2.347378    4.416864    0.515462
 C     -0.405043    5.512711   -0.360144
 C     -3.141863    5.463377    0.077908
 H     -2.784447    3.568333    1.021624
 C     -1.194929    6.566875   -0.796319
 H      0.665024    5.533734   -0.535226
 C     -2.565085    6.543297   -0.579649
 H     -4.213611    5.437887    0.252095
 H     -0.737532    7.408415   -1.309016
 H     -3.184807    7.367053   -0.922424
 C      0.284966    3.482418    2.215270
 C      1.181426    2.419786    2.700957
 H      0.798928    4.444205    2.331258
 H     -0.605758    3.500813    2.845362
 C      1.923463    1.568055    3.109075
 H      2.590833    0.842604    3.503774
 Cl    -2.766414    0.308271    0.485306
 Cl    -0.627889    1.576738   -2.026485
 O     -0.716583   -0.828227   -0.988852
 O      0.464359    0.282165    0.688034
 C     -0.175602   -2.350213    0.612991
 C      1.192222   -1.867503    0.453709
 C      2.603984   -0.037451   -0.032709
 C     -2.246710   -2.471559   -0.527229
 C     -2.664664   -3.513612    0.305210
 C     -0.554035   -3.364719    1.461759
 C     -1.818981   -3.916754    1.326705
 C      2.239707   -2.747617    0.275368
 C      3.487191   -2.259744   -0.069237
 C      3.681461   -0.900388   -0.256729
 H      0.143983   -3.720607    2.209242
 H     -2.132667   -4.710807    1.994051
 H      2.054631   -3.810387    0.364751
 H      4.309833   -2.945477   -0.234862
 C      4.995791   -0.363039   -0.671675
 C      2.735871    1.378458   -0.142187
 N     -1.053945   -1.889750   -0.296897
 N      1.408826   -0.548979    0.326106
 C     -3.000419   -1.981150   -1.635539
 C     -3.987734   -4.143218    0.104709
 C     -4.877334   -4.227627    1.170755
 C     -4.344793   -4.659443   -1.135476
 C     -6.473446   -5.330660   -0.245855
 C     -5.583306   -5.254735   -1.309313
 C     -6.119612   -4.815188    0.994345
 H     -4.608008   -3.817245    2.137029
 H     -6.813225   -4.869630    1.828481
 H     -7.446438   -5.794180   -0.383941
 H     -5.852984   -5.663083   -2.279059
 H     -3.651193   -4.609515   -1.964445
 C      6.133531   -0.672473    0.065996
 C      5.101744    0.435250   -1.804865
 C      7.471008    0.622362   -1.452407
 C      6.337072    0.924074   -2.196006
 C      7.368041   -0.175686   -0.320519
 H      6.055399   -1.289833    0.953468
 H      8.251856   -0.412919    0.264711
 H      8.439375    1.009448   -1.757611
 H      6.414365    1.541756   -3.086170
 H      4.221050    0.666848   -2.389921
 C     -3.604719   -1.578110   -2.588560
 H     -4.146678   -1.224783   -3.436268
 C      2.957871    2.550631   -0.252590
 H      3.141286    3.596394   -0.349491
