69

 Si     0.768940   -1.675720    1.047896
 O     -0.841905   -1.729172    0.935441
 C     -1.750389   -2.584175    0.327804
 C     -2.201443   -1.886726   -0.924872
 H     -1.239562   -3.507866    0.047450
 C     -1.216938   -1.575480   -1.854240
 C     -3.507671   -1.506779   -1.176672
 C     -1.527354   -0.885532   -3.009811
 H     -0.202063   -1.884792   -1.664078
 C     -3.827807   -0.811055   -2.335077
 H     -4.293766   -1.754984   -0.477759
 C     -2.839233   -0.494757   -3.252358
 H     -0.746253   -0.657212   -3.728821
 H     -4.857471   -0.516666   -2.516466
 H     -3.089612    0.048089   -4.159531
 C     -2.822945   -2.919796    1.329206
 C     -2.228112   -3.485618    2.548190
 H     -3.535773   -3.637741    0.906645
 H     -3.370474   -2.021579    1.603239
 C     -1.715664   -3.929013    3.538770
 H     -1.275378   -4.338166    4.416970
 Cl     1.851729   -1.673694    2.746829
 Cl     1.187625   -3.589615    0.441209
 O      1.483918   -1.080112   -0.386692
 O      0.502101    0.065604    1.389145
 C      1.562085    1.182545   -0.644795
 C      0.109889    1.191161   -0.522327
 C     -1.640855    0.776267    1.012862
 C      3.543668   -0.098452   -0.424437
 C      4.328767    1.040949   -0.615430
 C      2.301763    2.328061   -0.843952
 C      3.684578    2.251164   -0.826759
 C     -0.757646    1.811200   -1.390881
 C     -2.093143    1.898137   -1.045614
 C     -2.555255    1.419868    0.173121
 H      1.788120    3.270291   -0.987188
 H      4.274433    3.147396   -0.980398
 H     -0.382896    2.215971   -2.322499
 H     -2.789908    2.366901   -1.728002
 C     -3.962224    1.627587    0.578200
 C     -1.932920    0.292704    2.319790
 N      2.200229    0.019258   -0.452881
 N     -0.363685    0.656876    0.612715
 C      4.073641   -1.399195   -0.181834
 C      5.804722    0.946748   -0.586805
 C      6.534033    1.796356    0.238858
 C      6.468899    0.024665   -1.387799
 C      8.577231    0.793365   -0.529535
 C      7.851628   -0.049823   -1.361365
 C      7.916834    1.716014    0.271365
 H      6.021554    2.510929    0.872464
 H      8.479670    2.376082    0.925142
 H      9.661853    0.732068   -0.506560
 H      8.364166   -0.768300   -1.994582
 H      5.908113   -0.629449   -2.042455
 C     -4.576711    2.848394    0.306730
 C     -4.690465    0.631679    1.216315
 C     -6.617772    2.062212    1.299762
 C     -6.011609    0.843234    1.572571
 C     -5.895494    3.066412    0.668346
 H     -4.018500    3.643759   -0.171714
 H     -6.359393    4.025921    0.458280
 H     -7.653546    2.230927    1.581469
 H     -6.569014    0.051467    2.064743
 H     -4.229300   -0.318342    1.426986
 C      4.509222   -2.492502    0.044679
 H      4.886916   -3.468437    0.251275
 C     -2.130854   -0.096308    3.435185
 H     -2.325320   -0.443207    4.424538
