69

 Si     0.537779    1.555534    0.043326
 O     -1.013460    1.266480    0.375462
 C     -1.990438    1.807942    1.198423
 C     -2.952677    2.540753    0.312248
 H     -1.521554    2.516931    1.885597
 C     -2.416868    3.517122   -0.518550
 C     -4.306358    2.259204    0.240053
 C     -3.216994    4.196678   -1.417550
 H     -1.361448    3.739098   -0.456342
 C     -5.117792    2.942831   -0.656432
 H     -4.746847    1.506664    0.880183
 C     -4.575386    3.908172   -1.489916
 H     -2.781796    4.955215   -2.061671
 H     -6.179020    2.714982   -0.701749
 H     -5.209678    4.440919   -2.192924
 C     -2.576669    0.677234    2.003225
 C     -1.510359   -0.066607    2.688733
 H     -3.281462    1.058368    2.751010
 H     -3.118885   -0.004568    1.354189
 C     -0.617831   -0.657982    3.231037
 H      0.156485   -1.175870    3.742000
 Cl     1.233194    2.459386   -1.619449
 Cl     0.844777    3.098118    1.359290
 O      1.612988    0.572729    0.935991
 O      0.390542    0.094802   -0.992677
 C      2.047395   -1.500003    0.091590
 C      0.624137   -1.776830    0.240006
 C     -1.500607   -1.124642   -0.561366
 C      3.733406    0.161667    0.184712
 C      4.677584   -0.739402   -0.314917
 C      2.948558   -2.418958   -0.397372
 C      4.263094   -2.031020   -0.601963
 C      0.085093   -2.859374    0.892382
 C     -1.287192   -3.046581    0.845915
 C     -2.096246   -2.199383    0.106704
 H      2.608625   -3.419644   -0.632837
 H      4.980194   -2.745393   -0.989671
 H      0.735417   -3.536529    1.432315
 H     -1.734147   -3.883030    1.370127
 C     -3.561944   -2.390560    0.050819
 C     -2.200896   -0.224764   -1.411854
 N      2.464376   -0.255357    0.368634
 N     -0.180575   -0.930930   -0.423119
 C      4.025624    1.518622    0.507941
 C      6.077065   -0.311828   -0.532582
 C      6.676899   -0.519684   -1.770397
 C      6.800596    0.284307    0.494051
 C      8.707584    0.471870   -0.955373
 C      8.113385    0.672472    0.284036
 C      7.987579   -0.123710   -1.982822
 H      6.114820   -0.975347   -2.577345
 H      8.447086   -0.280522   -2.954497
 H      9.736480    0.779728   -1.120549
 H      8.674845    1.131800    1.092514
 H      6.343723    0.436393    1.463131
 C     -4.230455   -2.444484   -1.165930
 C     -4.277158   -2.517827    1.237963
 C     -6.317777   -2.733830   -0.010669
 C     -5.652006   -2.683561    1.207603
 C     -5.604769   -2.618142   -1.196588
 H     -3.677845   -2.361258   -2.092129
 H     -6.119721   -2.665589   -2.151831
 H     -7.395928   -2.866921   -0.035529
 H     -6.204701   -2.774143    2.138371
 H     -3.761663   -2.470430    2.189801
 C      4.262515    2.665465    0.762668
 H      4.460876    3.688957    0.987943
 C     -2.774839    0.518157   -2.154810
 H     -3.298731    1.176105   -2.808585
