69

 Si     0.931534    1.846723   -0.932367
 O     -0.679408    1.570119    0.102167
 C     -1.635812    2.135754    0.584300
 C     -2.530553    1.470436    1.531933
 H     -1.864356    3.172374    0.316519
 C     -2.075672    0.327596    2.185966
 C     -3.796647    1.979819    1.800792
 C     -2.883820   -0.308216    3.103746
 H     -1.075167   -0.022771    1.978937
 C     -4.616736    1.330163    2.710408
 H     -4.137928    2.880042    1.298782
 C     -4.158532    0.193789    3.361116
 H     -2.529844   -1.189418    3.630099
 H     -5.609839    1.716438    2.919876
 H     -4.798674   -0.307717    4.082981
 C     -1.816894    4.668567   -1.867220
 C     -0.924769    3.728956   -2.048536
 H     -2.875396    4.432834   -1.783990
 H     -1.519124    5.712744   -1.818545
 C     -0.045462    2.780700   -2.226209
 H      0.160909    2.510383   -3.259000
 Cl     2.689147    1.681797   -2.015167
 Cl     1.391269    3.434025    0.335816
 O      1.430543    0.722308    0.371699
 O      0.373713    0.275603   -1.680490
 C      1.721266   -1.429446   -0.248537
 C      0.268135   -1.507908   -0.315812
 C     -1.692760   -0.607976   -1.266050
 C      3.566338   -0.097382    0.385602
 C      4.442389   -1.152036    0.107738
 C      2.548372   -2.492464   -0.528886
 C      3.917034   -2.338374   -0.374473
 C     -0.465765   -2.481604    0.330415
 C     -1.839194   -2.503861    0.181488
 C     -2.472611   -1.574895   -0.631395
 H      2.116174   -3.424775   -0.869638
 H      4.582170   -3.163559   -0.600311
 H      0.050884   -3.206334    0.947428
 H     -2.427048   -3.261185    0.686073
 C     -3.940562   -1.589140   -0.819327
 C     -2.239352    0.395792   -2.119839
 N      2.249390   -0.261870    0.154358
 N     -0.357421   -0.595192   -1.072848
 C      3.997335    1.149624    0.923291
 C      5.898178   -0.985661    0.316880
 C      6.774071   -1.220722   -0.737259
 C      6.396413   -0.608401    1.558066
 C      8.634529   -0.691791    0.687661
 C      7.761520   -0.464619    1.743812
 C      8.139258   -1.069049   -0.553654
 H      6.389072   -1.505542   -1.709522
 H      8.817396   -1.245833   -1.383513
 H      9.705005   -0.575845    0.833167
 H      8.144806   -0.175293    2.718080
 H      5.719180   -0.434561    2.383898
 C     -4.491366   -1.608845   -2.095456
 C     -4.777009   -1.594157    0.290915
 C     -6.699897   -1.614766   -1.147739
 C     -6.152722   -1.599285    0.128508
 C     -5.866827   -1.624046   -2.259195
 H     -3.846659   -1.621185   -2.964291
 H     -6.289263   -1.644356   -3.259744
 H     -7.778721   -1.622712   -1.277151
 H     -6.799213   -1.593253    1.001229
 H     -4.352767   -1.572829    1.284572
 C      4.385761    2.180486    1.393716
 H      4.725994    3.101052    1.808896
 C     -2.721338    1.223390   -2.839294
 H     -3.142657    1.967359   -3.475470
