69

 Si    -0.338222    0.820246    1.362104
 O      0.295302    1.703030    0.168243
 C      0.403809    3.080128   -0.005938
 C     -0.965383    3.690343    0.055020
 H      1.024115    3.500752    0.789151
 C     -1.992448    3.107532   -0.671365
 C     -1.225157    4.802585    0.839276
 C     -3.271475    3.631431   -0.617512
 H     -1.782242    2.232771   -1.269284
 C     -2.506152    5.332714    0.895903
 H     -0.427261    5.254787    1.417706
 C     -3.530899    4.748413    0.167454
 H     -4.071202    3.174423   -1.190755
 H     -2.703021    6.203103    1.515175
 H     -4.534317    5.162382    0.210762
 C      1.067796    3.310736   -1.342498
 C      2.460573    2.831766   -1.367824
 H      1.071584    4.380551   -1.585469
 H      0.496167    2.790752   -2.112469
 C      3.606713    2.473456   -1.384558
 H      4.623356    2.170950   -1.409928
 Cl    -2.264194    0.590254    1.930201
 Cl     0.169855    1.989364    2.974494
 O     -0.647751   -0.309332   -0.051048
 O      0.763305   -0.394736    1.838120
 C     -0.222291   -2.452728    0.512462
 C      1.171891   -2.060285    0.348291
 C      2.795488   -0.387153    0.766117
 C     -2.410845   -1.784491   -0.067403
 C     -2.898664   -3.054365    0.262994
 C     -0.657370   -3.713368    0.846801
 C     -2.012737   -3.996038    0.760634
 C      2.042745   -2.738350   -0.472806
 C      3.313033   -2.224200   -0.673841
 C      3.710394   -1.044988   -0.063423
 H      0.063049   -4.457828    1.163111
 H     -2.377690   -4.979492    1.032445
 H      1.714253   -3.647575   -0.960263
 H      4.010277   -2.751267   -1.314531
 C      5.068614   -0.500270   -0.278348
 C      3.084966    0.825066    1.451315
 N     -1.110419   -1.509110    0.144808
 N      1.573452   -0.927957    0.942602
 C     -3.214952   -0.768767   -0.669337
 C     -4.335159   -3.367597    0.092433
 C     -5.072799   -3.819096    1.181489
 C     -4.947730   -3.227278   -1.147205
 C     -7.028052   -3.975349   -0.205662
 C     -6.290396   -3.533273   -1.296459
 C     -6.418076   -4.117163    1.033815
 H     -4.601179   -3.923145    2.151859
 H     -6.990819   -4.461215    1.890265
 H     -8.081992   -4.212261   -0.322765
 H     -6.761794   -3.427969   -2.269377
 H     -4.374753   -2.889367   -2.000677
 C      5.864692   -0.128631    0.798376
 C      5.560007   -0.373915   -1.574432
 C      7.619295    0.513015   -0.712956
 C      6.828972    0.136705   -1.791734
 C      7.136852    0.375420    0.581860
 H      5.498072   -0.242250    1.809618
 H      7.754365    0.658981    1.429332
 H      8.615896    0.911644   -0.882214
 H      7.200757    0.242473   -2.806895
 H      4.941347   -0.651600   -2.419548
 C     -3.900983    0.040026   -1.226782
 H     -4.516285    0.754647   -1.722305
 C      3.351926    1.850126    2.010424
 H      3.581795    2.761834    2.512951
