69

 Si    -0.148648    0.797436    1.793582
 O      0.324020    1.968384    0.781960
 C      0.002430    2.389113   -0.493794
 C     -1.416892    2.880164   -0.550804
 H      0.125184    1.569843   -1.204755
 C     -2.049694    3.288554    0.609680
 C     -2.086110    2.975075   -1.763438
 C     -3.344217    3.780506    0.569836
 H     -1.523943    3.227328    1.550090
 C     -3.376874    3.477711   -1.812328
 H     -1.594440    2.658990   -2.677052
 C     -4.010673    3.880566   -0.643605
 H     -3.828333    4.093841    1.490161
 H     -3.890585    3.553656   -2.766830
 H     -5.022138    4.275581   -0.679860
 C      0.960590    3.506696   -0.847859
 C      2.355804    3.048289   -0.954060
 H      0.678923    3.963402   -1.803898
 H      0.899014    4.272777   -0.073040
 C      3.499714    2.698834   -1.061012
 H      4.515105    2.408049   -1.158286
 Cl    -1.955828    0.310646    2.567866
 Cl     0.487962    1.789672    3.470501
 O     -0.555966   -0.082206    0.261325
 O      1.021956   -0.430798    1.980247
 C     -0.066218   -2.279813    0.413856
 C      1.310391   -1.843434    0.217269
 C      2.977272   -0.261698    0.794365
 C     -2.306166   -1.565176    0.196618
 C     -2.758280   -2.878739    0.366833
 C     -0.463590   -3.589649    0.549654
 C     -1.819684   -3.879409    0.561323
 C      2.124621   -2.382953   -0.752409
 C      3.390690   -1.854459   -0.939157
 C      3.840325   -0.791265   -0.171393
 H      0.286151   -4.363811    0.656973
 H     -2.151754   -4.900364    0.707745
 H      1.756297   -3.200646   -1.358857
 H      4.043922   -2.279299   -1.692185
 C      5.199257   -0.240053   -0.362013
 C      3.305775    0.843298    1.626402
 N     -0.990027   -1.308165    0.304786
 N      1.759156   -0.818738    0.957506
 C     -3.161927   -0.481727   -0.162007
 C     -4.207753   -3.165617    0.347293
 C     -5.072601   -2.423115    1.144033
 C     -4.709907   -4.187640   -0.451392
 C     -6.930113   -3.712830    0.334001
 C     -6.069109   -4.456757   -0.462231
 C     -6.429637   -2.697725    1.139749
 H     -4.682922   -1.636954    1.777490
 H     -7.098374   -2.118202    1.769592
 H     -7.995584   -3.926083    0.328205
 H     -6.456526   -5.250170   -1.094941
 H     -4.041944   -4.764826   -1.080140
 C      6.038968   -0.030194    0.725331
 C      5.650229    0.052788   -1.646200
 C      7.755164    0.781544   -0.747700
 C      6.921218    0.567782   -1.838197
 C      7.313554    0.477690    0.533122
 H      5.704511   -0.273444    1.724712
 H      7.964721    0.633652    1.388430
 H      8.753702    1.183037   -0.897592
 H      7.260939    0.803943   -2.842586
 H      4.998899   -0.098993   -2.498711
 C     -3.895471    0.394471   -0.520942
 H     -4.532585    1.188227   -0.831331
 C      3.587455    1.794194    2.298443
 H      3.830594    2.639210    2.901620
