69

 Si     0.268845    1.224430    1.450192
 O     -0.800770    2.462060    1.332458
 C     -1.363791    3.276971    0.361896
 C     -1.480040    2.484033   -0.910624
 H     -2.372313    3.522743    0.712459
 C     -0.375498    2.250837   -1.711226
 C     -2.657922    1.808934   -1.180339
 C     -0.424618    1.312110   -2.723623
 H      0.543469    2.784089   -1.523699
 C     -2.715816    0.863090   -2.188386
 H     -3.535364    2.004775   -0.580059
 C     -1.591029    0.598846   -2.953427
 H      0.452537    1.140673   -3.339822
 H     -3.644386    0.334414   -2.382015
 H     -1.633651   -0.140671   -3.748144
 C     -0.583252    4.564003    0.235058
 C     -0.560700    5.289927    1.514841
 H     -1.035405    5.204630   -0.532298
 H      0.441738    4.348522   -0.060028
 C     -0.550811    5.869658    2.566147
 H     -0.534430    6.402992    3.486442
 Cl     0.049244    0.938952    3.425283
 Cl     1.903231    2.218558    0.799949
 O     -0.666819    0.463241    0.243908
 O      1.090433   -0.375176    1.420794
 C     -0.297000   -1.657186   -0.415825
 C      1.078465   -1.263925   -0.688355
 C      3.087007   -0.534302    0.323025
 C     -2.314686   -1.026153    0.651493
 C     -2.860929   -2.289354    0.424302
 C     -0.795046   -2.922565   -0.653225
 C     -2.080915   -3.226683   -0.243201
 C      1.744108   -1.540637   -1.861585
 C      3.096033   -1.254818   -1.954157
 C      3.793243   -0.766265   -0.859340
 H     -0.164402   -3.659440   -1.134585
 H     -2.484718   -4.214812   -0.430619
 H      1.193503   -1.960416   -2.693877
 H      3.621296   -1.429000   -2.885785
 C      5.241239   -0.479987   -0.920887
 C      3.706444   -0.190783    1.562258
 N     -1.078305   -0.757641    0.188377
 N      1.750338   -0.711719    0.339419
 C     -2.944975    0.013247    1.393574
 C     -4.227697   -2.605782    0.888976
 C     -4.463681   -3.769604    1.613986
 C     -5.284087   -1.750644    0.594452
 C     -6.796493   -3.212921    1.754157
 C     -6.565308   -2.054623    1.022977
 C     -5.744065   -4.069424    2.050116
 H     -3.643617   -4.435709    1.855601
 H     -5.919681   -4.975130    2.623507
 H     -7.801326   -3.449705    2.093222
 H     -7.386606   -1.385473    0.783162
 H     -5.108720   -0.851522    0.018955
 C      6.122681   -1.423371   -1.438585
 C      5.724584    0.745625   -0.475280
 C      7.958421    0.077532   -1.052501
 C      7.078984    1.024874   -0.543413
 C      7.479054   -1.147157   -1.498957
 H      5.753330   -2.383490   -1.779672
 H      8.163649   -1.891448   -1.895535
 H      9.021795    0.295364   -1.102768
 H      7.448632    1.986458   -0.199207
 H      5.039237    1.486510   -0.084788
 C     -3.422972    0.882072    2.065698
 H     -3.840866    1.657552    2.666375
 C      4.219819    0.032530    2.621795
 H      4.681352    0.237282    3.560981
