75

 Si     0.368404    1.827712    0.169776
 O     -1.187127    1.499772    0.442807
 C     -2.188702    1.978138    1.275174
 C     -3.164310    2.712568    0.405927
 H     -1.749874    2.676859    1.991544
 C     -2.650497    3.740677   -0.375332
 C     -4.506196    2.389092    0.302537
 C     -3.461190    4.430458   -1.256628
 H     -1.603742    3.994079   -0.288026
 C     -5.328580    3.083025   -0.576184
 H     -4.929089    1.596803    0.905546
 C     -4.808267    4.100130   -1.360389
 H     -3.043907    5.229431   -1.862602
 H     -6.380880    2.822402   -0.646249
 H     -5.450837    4.640493   -2.049945
 C     -2.744237    0.801960    2.034437
 C     -1.659464    0.078468    2.712619
 H     -3.473940    1.132546    2.782399
 H     -3.250888    0.121683    1.356029
 C     -0.747914   -0.488862    3.248663
 H      0.046703   -0.984604    3.749462
 Cl     1.123024    2.851247   -1.397193
 Cl     0.610515    3.287841    1.592037
 O      1.426240    0.794131    1.025653
 O      0.258221    0.454821   -0.985523
 C      1.940176   -1.138089   -0.054506
 C      0.534733   -1.465103    0.150242
 C     -1.604677   -0.828962   -0.637888
 C      3.560846    0.571415    0.237235
 C      4.513739   -0.204895   -0.431101
 C      2.830145   -1.930105   -0.754234
 C      4.121199   -1.432926   -0.926628
 C      0.030438   -2.552636    0.826543
 C     -1.348978   -2.752812    0.751866
 C     -2.173473   -1.936464    0.006811
 H      4.845401   -2.030509   -1.465306
 H     -1.784080   -3.594786    1.274640
 C     -3.631817   -2.173803   -0.067973
 C     -2.324674    0.084345   -1.457372
 N      2.321190    0.075059    0.379778
 N     -0.295242   -0.617657   -0.487247
 C      3.820037    1.871563    0.760351
 C      5.892032    0.299819   -0.617529
 C      6.454270    0.321771   -1.889556
 C      6.632787    0.743299    0.472100
 C      8.482160    1.234732   -0.980807
 C      7.925434    1.206728    0.291436
 C      7.744621    0.792823   -2.071436
 H      5.877759   -0.012328   -2.744291
 H      8.174371    0.815434   -3.068769
 H      9.495020    1.601663   -1.122584
 H      8.500360    1.546125    1.148245
 H      6.204689    0.718465    1.465651
 C     -4.286371   -2.205954   -1.293167
 C     -4.355301   -2.367223    1.105107
 C     -6.374684   -2.606587   -0.173589
 C     -5.723295   -2.578086    1.053118
 C     -5.653703   -2.423870   -1.346101
 H     -3.727789   -2.069825   -2.209410
 H     -6.156809   -2.453061   -2.308359
 H     -7.447398   -2.774562   -0.215540
 H     -6.282003   -2.720680    1.973722
 H     -3.852006   -2.336483    2.063978
 C      4.038936    2.969639    1.187324
 H      4.221166    3.949648    1.565944
 C     -2.913373    0.841817   -2.173613
 H     -3.450821    1.512541   -2.802577
 C      0.901391   -3.478635    1.626479
 H      0.967816   -4.456581    1.144295
 H      1.903797   -3.080038    1.749172
 H      0.463492   -3.625243    2.614793
 C      2.438342   -3.263153   -1.326460
 H      3.000549   -3.451174   -2.240412
 H      2.668184   -4.064511   -0.620690
 H      1.377951   -3.301017   -1.558226
