75

 Si     0.316273    0.802339    2.390428
 O      0.989220    2.105122    1.707299
 C      0.579656    2.934871    0.671572
 C      1.064815    2.349627   -0.618614
 H     -0.506487    2.982679    0.645990
 C      2.420882    2.139050   -0.803586
 C      0.173752    1.958078   -1.603718
 C      2.889482    1.558954   -1.968943
 H      3.112534    2.431618   -0.026550
 C      0.633771    1.365287   -2.769152
 H     -0.886384    2.115687   -1.459122
 C      1.993865    1.168593   -2.955684
 H      3.955111    1.412038   -2.104294
 H     -0.071980    1.065991   -3.538930
 H      2.355508    0.720321   -3.876123
 C      1.115496    4.318669    0.953229
 C      0.488249    4.876813    2.163088
 H      0.917579    4.988689    0.107332
 H      2.194800    4.263689    1.099598
 C     -0.047860    5.305270    3.148367
 H     -0.508851    5.702508    4.021128
 Cl    -1.421578    0.786696    3.425834
 Cl     1.542708    0.798218    4.028620
 O     -0.560220    0.684099    0.811420
 O      0.875751   -0.753032    1.940109
 C     -1.143422   -1.445270    0.392704
 C      0.225262   -1.545455   -0.097844
 C      2.493146   -1.023152    0.358832
 C     -2.784940    0.210355    0.808297
 C     -3.781313   -0.773320    0.846147
 C     -2.074710   -2.461350    0.453272
 C     -3.397440   -2.092641    0.708205
 C      0.541091   -1.972513   -1.376548
 C      1.885810   -1.990870   -1.728053
 C      2.881399   -1.548933   -0.877057
 H     -4.150813   -2.866061    0.785135
 H      2.165403   -2.361350   -2.705047
 C      4.308432   -1.626752   -1.256194
 C      3.388446   -0.401661    1.275021
 N     -1.511821   -0.179099    0.668942
 N      1.193750   -1.075420    0.703866
 C     -3.029084    1.617327    0.863691
 C     -5.189681   -0.389653    1.076202
 C     -5.516532    0.450561    2.135020
 C     -6.193747   -0.878986    0.247362
 C     -7.836676    0.319815    1.526221
 C     -7.513795   -0.520435    0.468605
 C     -6.836621    0.802200    2.361188
 H     -4.739401    0.819344    2.791606
 H     -7.085264    1.453451    3.194150
 H     -8.872140    0.598500    1.701831
 H     -8.292477   -0.898587   -0.187578
 H     -5.944308   -1.529020   -0.583203
 C      5.249747   -2.095181   -0.345636
 C      4.716511   -1.271495   -2.538330
 C      6.987445   -1.821722   -1.981874
 C      6.050593   -1.361224   -2.898239
 C      6.583380   -2.193274   -0.706493
 H      4.941795   -2.398668    0.645495
 H      7.308347   -2.565495    0.011621
 H      8.034060   -1.895669   -2.264381
 H      6.359334   -1.071160   -3.898481
 H      3.993576   -0.904369   -3.254208
 C     -3.221956    2.800118    0.855178
 H     -3.398426    3.851889    0.855583
 C      4.141648    0.158879    2.019500
 H      4.803763    0.654825    2.692341
 C     -1.697295   -3.906993    0.297273
 H     -2.192257   -4.346147   -0.571185
 H     -0.624390   -4.034082    0.195933
 H     -2.025492   -4.458677    1.180672
 C     -0.508319   -2.395296   -2.365479
 H     -0.157419   -2.198151   -3.377171
 H     -0.710482   -3.464785   -2.283219
 H     -1.438810   -1.856218   -2.212970
