75

 Si    -0.267429    1.692931    1.921148
 O      0.952726    2.305495    1.051101
 C      1.199392    2.862823   -0.197885
 C      1.608629    1.787274   -1.167322
 H      2.059086    3.527567   -0.048703
 C      0.713376    1.152323   -2.012893
 C      2.944374    1.414384   -1.204826
 C      1.142608    0.162034   -2.879702
 H     -0.325596    1.434145   -2.005525
 C      3.384157    0.423677   -2.068342
 H      3.651877    1.918370   -0.559159
 C      2.480375   -0.206489   -2.910157
 H      0.429595   -0.314819   -3.545621
 H      4.434347    0.150660   -2.087671
 H      2.820056   -0.975405   -3.598342
 C      0.027422    3.691563   -0.654659
 C     -0.308944    4.727265    0.331669
 H      0.255548    4.168696   -1.614261
 H     -0.837207    3.052069   -0.785428
 C     -0.580723    5.558648    1.153386
 H     -0.830832    6.295632    1.879065
 Cl     0.384567    2.430519    3.712125
 Cl    -2.205154    2.189720    2.227273
 O     -0.731429    1.007542    0.300091
 O      0.100343    0.073422    2.313099
 C     -1.240394   -1.166074    0.489647
 C      0.208816   -1.309454    0.522275
 C      2.185846   -0.565234    1.599169
 C     -2.889948    0.398579   -0.158553
 C     -3.874608   -0.595638   -0.070962
 C     -2.165324   -2.180860    0.612638
 C     -3.497220   -1.855535    0.347077
 C      0.925903   -2.064573   -0.383797
 C      2.310940   -2.060004   -0.252670
 C      2.961959   -1.334009    0.724869
 H     -4.256254   -2.619353    0.457365
 H      2.903128   -2.634808   -0.950952
 C      4.434594   -1.382194    0.853480
 C      2.729940    0.180413    2.681305
 N     -1.639917    0.090092    0.209211
 N      0.852390   -0.578959    1.445887
 C     -3.132324    1.706017   -0.682180
 C     -5.281492   -0.269262   -0.386602
 C     -5.889457    0.830700    0.208711
 C     -6.006665   -1.068544   -1.263684
 C     -7.930797    0.337184   -0.957496
 C     -7.327010   -0.762641   -1.552768
 C     -7.211180    1.131682   -0.073703
 H     -5.332459    1.445379    0.903862
 H     -7.681486    1.988449    0.400163
 H     -8.967035    0.575314   -1.181526
 H     -7.885710   -1.385730   -2.245261
 H     -5.536161   -1.923381   -1.735383
 C      5.085838   -2.611514    0.805437
 C      5.180315   -0.219596    1.007129
 C      7.205248   -1.511611    1.065670
 C      6.559847   -0.282538    1.109536
 C      6.465260   -2.676978    0.915417
 H      4.513918   -3.525601    0.699344
 H      6.962605   -3.642213    0.885198
 H      8.287409   -1.561107    1.150143
 H      7.132669    0.633311    1.223313
 H      4.685217    0.739382    1.037147
 C     -3.350472    2.772463   -1.183708
 H     -3.540940    3.725992   -1.621431
 C      3.219625    0.768209    3.603397
 H      3.645216    1.301021    4.423116
 C      0.261779   -2.851425   -1.476448
 H      0.042691   -3.866301   -1.137337
 H     -0.667349   -2.388278   -1.793933
 H      0.925557   -2.920730   -2.335495
 C     -1.782652   -3.568177    1.042806
 H     -2.399321   -3.863691    1.893745
 H     -1.961167   -4.284696    0.238136
 H     -0.740530   -3.623524    1.340234
