75

 Si     0.260673    1.393736    0.965407
 O     -1.076488    2.511526    0.348031
 C     -1.385714    2.956758   -0.744485
 C     -2.545189    3.808455   -0.955685
 H     -0.778329    2.713262   -1.620515
 C     -3.345192    4.160082    0.131987
 C     -2.850327    4.268034   -2.235924
 C     -4.449058    4.963274   -0.060317
 H     -3.082555    3.786961    1.113499
 C     -3.959669    5.074713   -2.427998
 H     -2.219358    3.991961   -3.075198
 C     -4.754087    5.419481   -1.342168
 H     -5.076441    5.240770    0.781284
 H     -4.205573    5.436620   -3.421853
 H     -5.624694    6.053481   -1.493396
 C     -3.512916    1.351639    2.424806
 C     -2.290532    0.938284    2.216774
 H     -4.345498    0.982463    1.835934
 H     -3.720486    2.063845    3.219446
 C     -1.064956    0.540476    2.011493
 H     -0.755625   -0.315749    2.604552
 Cl     1.618486    2.270001   -0.412434
 Cl     0.754383    2.739975    2.477996
 O      1.370053    0.105459    1.482408
 O     -0.129048    0.343447   -0.464653
 C      1.839776   -1.272344   -0.238380
 C      0.485689   -1.771259   -0.016436
 C     -1.800117   -1.195345   -0.182842
 C      3.518810    0.117687    0.687889
 C      4.424346   -0.317008   -0.287758
 C      2.675226   -1.702313   -1.246735
 C      3.973025   -1.190027   -1.255414
 C      0.185608   -3.066943    0.358612
 C     -1.162576   -3.402181    0.463595
 C     -2.165276   -2.494640    0.182554
 H      4.658446   -1.510179   -2.029580
 H     -1.435530   -4.402245    0.774981
 C     -3.595054   -2.859865    0.288684
 C     -2.741555   -0.198228   -0.586256
 N      2.261421   -0.345508    0.641600
 N     -0.497641   -0.875612   -0.215900
 C      3.849063    1.034532    1.727962
 C      5.815770    0.186613   -0.288826
 C      6.339708    0.764632   -1.439885
 C      6.605892    0.078417    0.849416
 C      8.429261    1.127944   -0.311332
 C      7.910058    0.545050    0.837474
 C      7.641904    1.238525   -1.449905
 H      5.723486    0.862701   -2.325838
 H      8.041840    1.696271   -2.350073
 H      9.451270    1.496627   -0.319326
 H      8.523403    0.451536    1.729032
 H      6.205964   -0.378758    1.744913
 C     -4.092309   -3.958403   -0.402983
 C     -4.441744   -2.109669    1.096462
 C     -6.276687   -3.544565    0.509229
 C     -5.778867   -2.452195    1.208688
 C     -5.432408   -4.296748   -0.296851
 H     -3.436600   -4.543065   -1.037836
 H     -5.817739   -5.151106   -0.846028
 H     -7.326348   -3.812000    0.594825
 H     -6.433600   -1.866321    1.847378
 H     -4.051667   -1.264910    1.648055
 C      4.132402    1.795701    2.608494
 H      4.379935    2.475399    3.391073
 C     -3.559596    0.588659   -0.969301
 H     -4.290209    1.287864   -1.301225
 C      1.258250   -4.075954    0.657097
 H      1.430063   -4.717631   -0.210398
 H      2.195404   -3.595985    0.922469
 H      0.946636   -4.711192    1.486045
 C      2.227276   -2.679273   -2.296659
 H      2.598182   -2.364433   -3.272448
 H      2.630548   -3.673861   -2.091779
 H      1.145001   -2.747347   -2.345522
