75

 Si    -0.210541    1.086445    2.178031
 O      0.427067    2.190524    1.167558
 C      0.578039    2.402440   -0.186155
 C     -0.748627    2.461711   -0.874241
 H      1.149931    1.584674   -0.619393
 C     -1.736526    3.285616   -0.364589
 C     -1.016641    1.678449   -1.983296
 C     -2.982570    3.336731   -0.962157
 H     -1.525903    3.891207    0.506268
 C     -2.265933    1.716534   -2.581906
 H     -0.246123    1.036206   -2.389371
 C     -3.251101    2.549127   -2.074458
 H     -3.745208    3.997744   -0.561185
 H     -2.468281    1.101710   -3.454513
 H     -4.227242    2.589411   -2.549130
 C      1.358460    3.685277   -0.362614
 C      2.709112    3.611541    0.215905
 H      1.447825    3.933463   -1.427723
 H      0.812643    4.492389    0.127352
 C      3.815688    3.576201    0.679453
 H      4.800428    3.551959    1.075010
 Cl    -1.973392    0.690309    3.102368
 Cl     0.614467    1.984901    3.818792
 O     -0.924742    0.458850    0.649315
 O      0.789138   -0.301035    2.161529
 C     -0.398668   -1.684914    0.337783
 C      0.908896   -1.111922    0.047596
 C      2.714676    0.117400    0.971006
 C     -2.658968   -1.040551    0.583930
 C     -3.043087   -2.390948    0.580373
 C     -0.711859   -3.025939    0.336167
 C     -2.061191   -3.355031    0.485561
 C      1.527985   -1.201973   -1.181921
 C      2.782181   -0.608287   -1.301588
 C      3.405936    0.022518   -0.242719
 H     -2.347930   -4.398325    0.516599
 H      3.300715   -0.661923   -2.250183
 C      4.755412    0.606557   -0.394054
 C      3.246178    0.728298    2.138412
 N     -1.352188   -0.755477    0.539697
 N      1.483935   -0.416915    1.042339
 C     -3.592777    0.037315    0.566755
 C     -4.472022   -2.750808    0.703685
 C     -5.236247   -2.222201    1.738109
 C     -5.052196   -3.630564   -0.203724
 C     -7.150999   -3.440273    0.949747
 C     -6.390394   -3.970340   -0.084142
 C     -6.571272   -2.568114    1.862649
 H     -4.784531   -1.547734    2.453932
 H     -7.160385   -2.156602    2.677136
 H     -8.199392   -3.709152    1.045872
 H     -6.839900   -4.651457   -0.801035
 H     -4.463121   -4.040340   -1.015920
 C      5.763603    0.308533    0.514485
 C      5.018789    1.456819   -1.462598
 C      7.280747    1.720335   -0.701285
 C      6.276276    2.016382   -1.613457
 C      7.023637    0.862811    0.360528
 H      5.570398   -0.365197    1.338398
 H      7.808608    0.620520    1.071141
 H      8.268630    2.157003   -0.820004
 H      6.470751    2.688751   -2.443942
 H      4.233137    1.706598   -2.164620
 C     -4.420389    0.901157    0.503591
 H     -5.157531    1.667675    0.451867
 C      3.726888    1.218023    3.120250
 H      4.144109    1.655694    3.998252
 C      0.334770   -4.095383    0.204968
 H      0.222470   -4.627446   -0.742492
 H      1.338235   -3.685420    0.259938
 H      0.214772   -4.821647    1.010695
 C      0.883086   -1.902223   -2.344700
 H      1.250182   -1.482649   -3.280187
 H      1.128534   -2.966271   -2.334946
 H     -0.198457   -1.798745   -2.318796
