75

 Si    -0.775438    1.067349   -0.000458
 O     -0.665879    2.342661    1.015861
 C     -0.221357    3.640090    1.047932
 C     -1.198767    4.548590    0.356206
 H      0.742581    3.717197    0.540610
 C     -2.556286    4.329471    0.524874
 C     -0.769642    5.594816   -0.445769
 C     -3.482876    5.139291   -0.108418
 H     -2.880457    3.507450    1.146029
 C     -1.693347    6.414710   -1.078704
 H      0.291339    5.772504   -0.582927
 C     -3.051497    6.187423   -0.912903
 H     -4.544453    4.954781    0.027630
 H     -1.349021    7.232226   -1.705830
 H     -3.775533    6.826993   -1.409699
 C     -0.054235    4.020198    2.503005
 C      0.888085    3.131032    3.202418
 H      0.295689    5.055313    2.600421
 H     -1.025878    3.948281    2.993878
 C      1.657545    2.403982    3.769873
 H      2.343967    1.783838    4.293033
 Cl    -2.642021    0.628804    0.658903
 Cl    -0.319049    2.009345   -1.732460
 O     -0.713432   -0.426659   -1.003313
 O      0.483086    0.321749    0.897590
 C     -0.118905   -2.154334    0.330814
 C      1.225626   -1.657231    0.064140
 C      2.591293    0.276787    0.025132
 C     -2.277630   -2.067773   -0.638913
 C     -2.664339   -3.183176    0.117985
 C     -0.458338   -3.214593    1.139487
 C     -1.766839   -3.694640    1.031941
 C      2.203995   -2.420370   -0.550194
 C      3.399470   -1.783356   -0.868783
 C      3.615170   -0.445831   -0.595560
 H     -2.069979   -4.530514    1.649442
 H      4.177724   -2.342574   -1.371696
 C      4.887567    0.218405   -0.952424
 C      2.737213    1.636716    0.427076
 N     -1.054465   -1.560769   -0.438788
 N      1.438393   -0.354352    0.304686
 C     -3.099019   -1.439980   -1.623343
 C     -4.019885   -3.754377   -0.039999
 C     -4.833945   -3.919191    1.075543
 C     -4.482130   -4.135817   -1.294162
 C     -6.563181   -4.835447   -0.318001
 C     -5.749226   -4.678044   -1.432337
 C     -6.104563   -4.454086    0.936217
 H     -4.482814   -3.612490    2.053871
 H     -6.738258   -4.572211    1.810477
 H     -7.558200   -5.258020   -0.427342
 H     -6.101423   -4.980248   -2.414435
 H     -3.848991   -4.019889   -2.163963
 C      6.096624   -0.325132   -0.531763
 C      4.880292    1.377457   -1.720218
 C      7.280173    1.451809   -1.633044
 C      6.073868    1.990950   -2.062063
 C      7.290462    0.293628   -0.866819
 H      6.107344   -1.225075    0.072141
 H      8.231281   -0.130717   -0.528186
 H      8.216209    1.935533   -1.898636
 H      6.061751    2.892785   -2.667372
 H      3.941870    1.796184   -2.060314
 C     -3.764089   -0.927645   -2.478434
 H     -4.359571   -0.476829   -3.239345
 C      2.964494    2.758244    0.781751
 H      3.156714    3.755418    1.103580
 C      0.514455   -3.832557    2.103055
 H      0.685629   -4.883234    1.860207
 H      1.465604   -3.309737    2.103795
 H      0.098429   -3.787874    3.111782
 C      1.983407   -3.864333   -0.903720
 H      2.630502   -4.144677   -1.733170
 H      2.224689   -4.507984   -0.055444
 H      0.952419   -4.050246   -1.192435
