75

 Si     0.530778    2.115821   -0.673024
 O     -1.064861    2.089806   -0.474019
 C     -2.187769    2.418947    0.253237
 C     -2.205275    1.619537    1.525959
 H     -3.039118    2.108002   -0.360540
 C     -1.033807    1.415939    2.233360
 C     -3.384132    1.056699    1.991658
 C     -1.024306    0.633296    3.373566
 H     -0.125692    1.875732    1.890026
 C     -3.385391    0.277383    3.138993
 H     -4.309006    1.226690    1.453190
 C     -2.202233    0.056133    3.828999
 H     -0.094240    0.482775    3.913309
 H     -4.314408   -0.157592    3.496716
 H     -2.201086   -0.555400    4.727071
 C     -2.314934    3.905935    0.482665
 C     -2.302044    4.622518   -0.802383
 H     -3.258939    4.113677    1.001244
 H     -1.495800    4.265028    1.102920
 C     -2.284583    5.175042   -1.868049
 H     -2.271250    5.692398   -2.797471
 Cl     1.499988    2.675340   -2.347896
 Cl     0.951940    3.770370    0.464707
 O      1.356947    1.150352    0.470271
 O      0.279597    0.549254   -1.520525
 C      1.502980   -1.057515   -0.031614
 C      0.047269   -1.047935    0.046329
 C     -1.815369   -0.313407   -1.217401
 C      3.430801    0.328421   -0.000396
 C      4.237967   -0.766174   -0.323896
 C      2.249470   -2.166215   -0.388920
 C      3.625009   -1.988906   -0.522883
 C     -0.741923   -1.826200    0.864592
 C     -2.106018   -1.853674    0.579211
 C     -2.656078   -1.160870   -0.481384
 H      4.238975   -2.837901   -0.794666
 H     -2.750235   -2.479106    1.182164
 C     -4.087749   -1.295586   -0.829146
 C     -2.237539    0.521585   -2.291421
 N      2.107884    0.130302    0.123425
 N     -0.519807   -0.269141   -0.893774
 C      3.917556    1.655210    0.185766
 C      5.700585   -0.600003   -0.470905
 C      6.335640   -1.048600   -1.624286
 C      6.446510   -0.006395    0.541071
 C      8.447653   -0.303427   -0.754941
 C      7.816764    0.138686    0.400855
 C      7.705295   -0.896059   -1.768074
 H      5.758069   -1.501904   -2.421451
 H      8.193489   -1.240373   -2.675261
 H      9.522167   -0.186321   -0.866033
 H      8.393971    0.597735    1.198319
 H      5.959722    0.334593    1.445394
 C     -4.476962   -1.451718   -2.155373
 C     -5.055006   -1.308719    0.171192
 C     -6.777582   -1.597580   -1.478016
 C     -6.394345   -1.451377   -0.151080
 C     -5.815245   -1.602687   -2.478941
 H     -3.733303   -1.469619   -2.939737
 H     -6.106047   -1.728411   -3.517903
 H     -7.827806   -1.712620   -1.731813
 H     -7.141182   -1.449643    0.637698
 H     -4.763714   -1.189374    1.205601
 C      4.319792    2.775573    0.324182
 H      4.666839    3.776781    0.444035
 C     -2.568958    1.239839   -3.190809
 H     -2.878602    1.868657   -3.994233
 C      1.620886   -3.506477   -0.647071
 H      1.574205   -4.091137    0.274078
 H      0.613645   -3.404148   -1.040766
 H      2.220111   -4.062355   -1.366831
 C     -0.177503   -2.619428    2.007204
 H     -0.720675   -2.367016    2.918304
 H     -0.296253   -3.690601    1.831186
 H      0.874271   -2.402438    2.164436
