67

 Si     0.383831    1.138363    1.771480
 O      0.337056    1.063567    0.188176
 C      0.296757    1.916314   -0.938275
 C     -1.028815    2.601239   -0.963489
 H      0.386849    1.245899   -1.790764
 C     -1.414264    3.395195    0.108538
 C     -1.896321    2.420614   -2.026879
 C     -2.660009    3.991898    0.127188
 H     -0.736751    3.547438    0.936054
 C     -3.146009    3.023833   -2.018337
 H     -1.604730    1.796739   -2.861701
 C     -3.531032    3.805526   -0.940441
 H     -2.952479    4.606267    0.973605
 H     -3.822447    2.867030   -2.852685
 H     -4.511603    4.273009   -0.929899
 C      1.459770    2.877223   -0.911991
 C      2.758377    2.193702   -0.792123
 H      1.358482    3.569866   -0.076524
 H      1.452690    3.465515   -1.837703
 C      3.828241    1.662316   -0.672718
 H      4.789557    1.224160   -0.569961
 Cl    -1.377713    1.084623    2.685708
 Cl     1.517035    2.558993    2.555840
 O     -0.677791   -0.686172   -1.831533
 O      1.074935   -0.374412    2.060211
 C     -0.507577   -1.514890    0.259288
 C      0.929689   -1.507756    0.063571
 C      3.038606   -0.957854    1.005181
 C     -2.605319   -0.982191   -0.656013
 C     -3.246590   -1.411805    0.501762
 C     -1.114023   -1.974422    1.413682
 C     -2.481166   -1.927467    1.542706
 C      1.568918   -2.059058   -1.035232
 C      2.941663   -2.068923   -1.090767
 C      3.715513   -1.539542   -0.051159
 H     -0.485728   -2.362103    2.203240
 H     -2.961812   -2.292731    2.439589
 H      0.962628   -2.488199   -1.818940
 H      3.440064   -2.521998   -1.939801
 N     -1.243758   -1.042186   -0.786503
 N      1.684180   -0.949044    1.015243
 C      5.192158   -1.586438   -0.087080
 C      5.916969   -2.003867    1.023858
 C      5.863829   -1.219704   -1.250755
 C      7.300674   -2.043528    0.976779
 H      5.406450   -2.313104    1.926167
 C      7.247035   -1.253102   -1.295111
 H      5.307153   -0.889931   -2.120078
 C      7.967707   -1.664715   -0.180317
 H      7.858401   -2.373392    1.848550
 H      7.764275   -0.955510   -2.202797
 H      9.053444   -1.692426   -0.215340
 C     -4.716054   -1.309328    0.620179
 C     -5.552383   -1.822130   -0.364682
 C     -5.265332   -0.693313    1.740840
 C     -6.926915   -1.715256   -0.232911
 H     -5.134870   -2.315341   -1.232400
 C     -6.639478   -0.577626    1.867658
 H     -4.616012   -0.287253    2.507221
 C     -7.472142   -1.089838    0.880536
 H     -7.573687   -2.121959   -1.004886
 H     -7.061506   -0.086710    2.739813
 H     -8.550593   -1.002484    0.980452
 C     -3.312483   -0.464942   -1.792630
 C      3.688514   -0.319229    2.114589
 N     -3.886310   -0.057540   -2.701953
 N      4.222250    0.190091    2.996674
