67

 Si     0.015119    0.786275    0.897995
 O     -0.857110    2.104439    0.766919
 C     -0.632058    3.490882    0.981495
 C     -1.392416    4.227371   -0.069275
 H      0.438559    3.678300    0.864282
 C     -2.768586    4.067630   -0.157140
 C     -0.735840    5.038120   -0.984845
 C     -3.484893    4.706573   -1.153191
 H     -3.280725    3.430035    0.549008
 C     -1.451556    5.688924   -1.979804
 H      0.339089    5.170194   -0.921915
 C     -2.825807    5.522312   -2.066002
 H     -4.560323    4.570686   -1.215971
 H     -0.932241    6.326852   -2.689308
 H     -3.387040    6.029895   -2.845760
 C     -1.046327    3.832772    2.392979
 C     -0.197926    3.148634    3.385350
 H     -2.087241    3.541769    2.541955
 H     -0.968045    4.915857    2.547160
 C      0.512544    2.582548    4.170718
 H      1.137495    2.082713    4.872348
 Cl    -0.509284   -0.451710    2.357514
 Cl     1.975634    1.124311    0.871943
 O     -0.366393   -0.011660   -0.541187
 O      1.520413   -3.243835    1.275619
 C     -0.063445   -2.286891   -0.549330
 C      1.361497   -2.009066   -0.606548
 C      3.429121   -2.268343    0.486540
 C     -2.239575   -1.338537   -0.465349
 C     -2.834259   -2.583425   -0.406040
 C     -0.620254   -3.556266   -0.468594
 C     -1.983958   -3.698775   -0.394425
 C      1.959252   -1.242005   -1.589577
 C      3.310021   -0.996141   -1.546105
 C      4.061182   -1.503262   -0.487758
 H      0.043748   -4.408740   -0.462245
 H     -2.418343   -4.690219   -0.340853
 H      1.336700   -0.849199   -2.382525
 H      3.790571   -0.416413   -2.321503
 N     -0.888003   -1.236899   -0.525801
 N      2.085356   -2.543462    0.423769
 C      5.507462   -1.220829   -0.385021
 C      6.420788   -2.243281   -0.153535
 C      5.959817    0.087657   -0.529645
 C      7.773211   -1.959928   -0.061968
 H      6.081101   -3.265602   -0.054296
 C      7.311011    0.372673   -0.427451
 H      5.251733    0.888648   -0.704638
 C      8.219889   -0.651887   -0.194352
 H      8.479897   -2.765438    0.115204
 H      7.655621    1.397581   -0.530072
 H      9.280702   -0.429844   -0.116706
 C     -4.302195   -2.724711   -0.333669
 C     -5.124303   -2.037124   -1.220490
 C     -4.865845   -3.557464    0.628837
 C     -6.499490   -2.176637   -1.142142
 H     -4.694891   -1.402227   -1.984392
 C     -6.241752   -3.689781    0.711720
 H     -4.231366   -4.089197    1.328546
 C     -7.059966   -3.000017   -0.174210
 H     -7.135134   -1.640865   -1.841157
 H     -6.676269   -4.333018    1.471556
 H     -8.139587   -3.106105   -0.110866
 C     -2.963625   -0.100659   -0.401450
 C      4.105566   -2.783598    1.644237
 N     -3.545405    0.887091   -0.323344
 N      4.648375   -3.187679    2.574762
