67

 Si    -0.726530    1.733037    1.279127
 O      0.880913    1.676237    1.138726
 C      1.840717    2.477243    0.528045
 C      2.073419    1.896215   -0.840150
 H      1.438794    3.486426    0.414216
 C      3.289263    1.392641   -1.266727
 C      0.984423    1.842067   -1.700177
 C      3.414792    0.833440   -2.532337
 H      4.154139    1.439810   -0.619612
 C      1.096560    1.275120   -2.954688
 H      0.045403    2.258779   -1.378648
 C      2.318693    0.765099   -3.376626
 H      4.378140    0.454027   -2.860330
 H      0.232938    1.244202   -3.612398
 H      2.417215    0.325443   -4.365333
 C      3.041632    2.537158    1.433373
 C      2.658712    3.064805    2.749549
 H      3.815695    3.179854    0.997583
 H      3.466075    1.542947    1.564498
 C      2.313511    3.487638    3.817962
 H      2.024424    3.864794    4.770286
 Cl    -1.782729    1.676782    2.984424
 Cl    -1.047232    3.677865    0.760384
 O     -1.495755    1.244915   -0.177485
 O     -0.561722   -0.062094    1.500086
 C     -1.559712   -0.983820   -0.666777
 C     -0.114954   -1.039401   -0.480863
 C      1.562759   -0.811854    1.155947
 C     -3.537669    0.269800   -0.371368
 C     -4.334158   -0.819901   -0.702832
 C     -2.311032   -2.096238   -1.010696
 C     -3.686792   -2.012421   -1.025898
 C      0.790234   -1.613663   -1.353391
 C      2.097110   -1.779511   -0.950404
 C      2.507016   -1.414625    0.331435
 H     -1.798808   -3.022681   -1.239740
 H     -4.277202   -2.881408   -1.291822
 H      0.453161   -1.934482   -2.331189
 H      2.810188   -2.241260   -1.621280
 N     -2.191989    0.156043   -0.370404
 N      0.306559   -0.625671    0.718322
 C      3.884527   -1.662582    0.802735
 C      4.116510   -2.193793    2.067767
 C      4.963562   -1.389802   -0.033892
 C      5.410956   -2.431134    2.497815
 H      3.289189   -2.438772    2.719031
 C      6.258233   -1.619033    0.398562
 H      4.793150   -0.978602   -1.019207
 C      6.484265   -2.138975    1.667012
 H      5.579607   -2.847771    3.486605
 H      7.093775   -1.391765   -0.257276
 H      7.500205   -2.321199    2.006899
 C     -5.806829   -0.713127   -0.705812
 C     -6.441551    0.327409   -1.376149
 C     -6.564680   -1.670539   -0.036890
 C     -7.823222    0.413900   -1.372006
 H     -5.862539    1.066663   -1.913664
 C     -7.946081   -1.577872   -0.026009
 H     -6.075923   -2.478382    0.495277
 C     -8.576682   -0.535643   -0.694174
 H     -8.312263    1.227203   -1.900311
 H     -8.531973   -2.320863    0.507407
 H     -9.660968   -0.463796   -0.687270
 C     -4.071030    1.552975   -0.012462
 C      1.819814   -0.381285    2.495572
 N     -4.532642    2.568319    0.267100
 N      2.026389   -0.064891    3.580548
