67

 Si    -0.325852    0.926284    1.456323
 O      0.419624    1.713055    0.262624
 C      0.454030    3.086584   -0.009188
 C     -0.954100    3.598859   -0.013446
 H      1.030320    3.589744    0.771326
 C     -1.903380    2.941554   -0.782135
 C     -1.331943    4.677937    0.768826
 C     -3.222541    3.354288   -0.773073
 H     -1.604656    2.093124   -1.379030
 C     -2.653897    5.099560    0.779333
 H     -0.596038    5.186296    1.381928
 C     -3.599594    4.438821    0.010168
 H     -3.957065    2.826351   -1.372026
 H     -2.944968    5.944304    1.397035
 H     -4.635066    4.767113    0.021449
 C      1.135770    3.262732   -1.343134
 C      2.562314    2.897306   -1.303479
 H      1.064934    4.308937   -1.665456
 H      0.624594    2.646179   -2.083673
 C      3.734897    2.640907   -1.267148
 H      4.774899    2.434426   -1.240824
 Cl    -2.269560    0.721002    1.955200
 Cl     0.170378    2.071774    3.063610
 O     -0.663247   -0.235535    0.011881
 O      0.742579   -0.331569    1.909741
 C     -0.230899   -2.375790    0.563436
 C      1.160784   -1.973475    0.403751
 C      2.754821   -0.279656    0.799905
 C     -2.417785   -1.712081    0.005711
 C     -2.916784   -2.975000    0.320453
 C     -0.673299   -3.642498    0.889670
 C     -2.023366   -3.924819    0.807971
 C      2.043305   -2.632732   -0.430154
 C      3.295955   -2.096941   -0.643360
 C      3.678978   -0.903561   -0.034890
 H      0.047759   -4.389962    1.199256
 H     -2.386714   -4.911152    1.070210
 H      1.727506   -3.548204   -0.915392
 H      3.997247   -2.609353   -1.291225
 N     -1.114883   -1.428746    0.204239
 N      1.546116   -0.841481    1.000460
 C      5.018780   -0.329591   -0.268609
 C      5.801368    0.116843    0.790393
 C      5.505567   -0.245030   -1.570708
 C      7.053158    0.657129    0.549068
 H      5.444688    0.035896    1.808137
 C      6.754490    0.300463   -1.811982
 H      4.896922   -0.578342   -2.402676
 C      7.529618    0.753998   -0.751539
 H      7.658255    1.002611    1.382287
 H      7.122379    0.375089   -2.831241
 H      8.510618    1.181889   -0.939898
 C     -4.351545   -3.284463    0.150306
 C     -4.991873   -3.050856   -1.061738
 C     -5.063067   -3.827216    1.216422
 C     -6.335901   -3.351436   -1.204634
 H     -4.443539   -2.645305   -1.901509
 C     -6.409329   -4.119045    1.075050
 H     -4.570978   -4.004067    2.165808
 C     -7.047003   -3.881879   -0.136212
 H     -6.828871   -3.169841   -2.155261
 H     -6.962207   -4.532034    1.913861
 H     -8.102846   -4.112968   -0.248265
 C     -3.216691   -0.681712   -0.596547
 C      3.032489    0.949205    1.478932
 N     -3.864081    0.090156   -1.149567
 N      3.318428    1.935926    1.993248
