67

 Si    -0.730172    1.502889    1.700308
 O     -0.080087    2.499054    0.620918
 C      1.206216    2.961718    0.406493
 C      1.908314    2.036540   -0.551404
 H      1.750189    2.989698    1.354276
 C      1.163042    1.282919   -1.439671
 C      3.293938    1.955387   -0.582723
 C      1.786612    0.444071   -2.348039
 H      0.090754    1.357103   -1.408679
 C      3.924479    1.127986   -1.497205
 H      3.883227    2.539489    0.115356
 C      3.171439    0.371067   -2.384061
 H      1.189308   -0.140101   -3.041843
 H      5.008467    1.074178   -1.514720
 H      3.664205   -0.269182   -3.109252
 C      1.107765    4.361658   -0.153484
 C      0.460986    5.274495    0.801496
 H      0.521338    4.329690   -1.074043
 H      2.105029    4.747219   -0.396784
 C     -0.066308    6.002457    1.596977
 H     -0.526655    6.661160    2.294366
 Cl     0.087064    2.217949    3.423391
 Cl    -2.658819    1.583441    2.285283
 O     -1.255390    0.668274    0.119982
 O      0.016588   -0.027094    1.955197
 C     -1.519082   -1.558747    0.333297
 C     -0.062563   -1.629322    0.326630
 C      1.990135   -0.763041    1.099967
 C     -3.352965   -0.174871   -0.181612
 C     -4.235653   -1.248375   -0.110668
 C     -2.355393   -2.658638    0.421273
 C     -3.712451   -2.492969    0.237006
 C      0.621401   -2.532491   -0.473466
 C      1.995848   -2.557799   -0.456661
 C      2.719051   -1.681778    0.354712
 H     -1.927081   -3.630636    0.634694
 H     -4.376285   -3.345684    0.312881
 H      0.053780   -3.210750   -1.098179
 H      2.527472   -3.279530   -1.064513
 N     -2.045695   -0.348235    0.103470
 N      0.635908   -0.771180    1.074378
 C      4.190402   -1.758334    0.438785
 C      4.837752   -1.670272    1.667394
 C      4.940863   -1.960149   -0.716606
 C      6.217596   -1.756325    1.737062
 H      4.270644   -1.551355    2.579858
 C      6.320354   -2.038875   -0.649122
 H      4.449716   -2.031195   -1.677423
 C      6.962085   -1.933801    0.578846
 H      6.711033   -1.687122    2.702157
 H      6.896932   -2.182655   -1.558327
 H      8.045583   -1.996896    0.633351
 C     -5.675162   -1.065946   -0.383828
 C     -6.105183   -0.424718   -1.540618
 C     -6.609787   -1.551843    0.526500
 C     -7.459056   -0.265090   -1.782396
 H     -5.387773   -0.058806   -2.262847
 C     -7.963242   -1.383350    0.288180
 H     -6.280934   -2.044357    1.434188
 C     -8.389291   -0.740250   -0.867296
 H     -7.787534    0.233167   -2.689881
 H     -8.687482   -1.754409    1.007633
 H     -9.451497   -0.609972   -1.055847
 C     -3.735451    1.144678   -0.598190
 C      2.607191    0.223825    1.934216
 N     -4.043086    2.178400   -0.996492
 N      3.147372    1.017630    2.565358
