67

 Si    -0.436413    1.001824    1.809201
 O      0.246471    1.724173    0.569008
 C     -0.284346    2.324474   -0.587088
 C     -1.013654    3.566487   -0.181576
 H     -0.973097    1.623524   -1.055202
 C     -0.378185    4.493689    0.632565
 C     -2.327013    3.777478   -0.574016
 C     -1.049637    5.626687    1.055829
 H      0.641825    4.317885    0.946827
 C     -3.001657    4.916541   -0.157275
 H     -2.830148    3.048567   -1.200739
 C     -2.364707    5.840657    0.657814
 H     -0.547993    6.344048    1.698598
 H     -4.030447    5.077340   -0.466477
 H     -2.894287    6.729834    0.988501
 C      0.880269    2.580860   -1.506942
 C      1.428400    1.335173   -2.069064
 H      1.657314    3.113596   -0.957035
 H      0.566554    3.215061   -2.345210
 C      1.841466    0.326374   -2.572086
 H      2.203183   -0.544218   -3.059853
 Cl    -2.368127    0.565661    1.736879
 Cl    -0.126966    1.924763    3.540397
 O     -0.652151   -0.523287   -0.490707
 O      0.523172   -0.381497    1.920174
 C     -0.110099   -2.468226    0.466741
 C      1.231817   -1.904190    0.395605
 C      2.578058   -0.034355    0.905277
 C     -2.306723   -2.080207   -0.281836
 C     -2.716448   -3.318908    0.209156
 C     -0.471665   -3.700870    0.968062
 C     -1.783183   -4.120769    0.858787
 C      2.239850   -2.428129   -0.389350
 C      3.425230   -1.736282   -0.528313
 C      3.611210   -0.515547    0.111919
 H      0.286146   -4.318264    1.438193
 H     -2.081649   -5.086018    1.246109
 H      2.066541   -3.368973   -0.897729
 H      4.220037   -2.138364   -1.146367
 N     -1.024976   -1.653030   -0.122322
 N      1.435134   -0.740340    1.027710
 C      4.857875    0.264154   -0.044076
 C      5.611642    0.620074    1.068653
 C      5.273650    0.640560   -1.316412
 C      6.775347    1.353194    0.909310
 H      5.298463    0.319043    2.060276
 C      6.434136    1.380660   -1.473468
 H      4.677689    0.377944   -2.181903
 C      7.186129    1.736287   -0.361049
 H      7.362971    1.626076    1.781075
 H      6.750863    1.681604   -2.467936
 H      8.097677    2.314748   -0.484651
 C     -4.119459   -3.753888    0.046135
 C     -4.744229   -3.688225   -1.194733
 C     -4.819350   -4.243287    1.145281
 C     -6.057969   -4.102827   -1.334597
 H     -4.204256   -3.325257   -2.058997
 C     -6.136328   -4.648977    1.007174
 H     -4.340829   -4.290374    2.116404
 C     -6.757061   -4.580041   -0.233654
 H     -6.536637   -4.052098   -2.308227
 H     -6.679574   -5.019677    1.871637
 H     -7.789437   -4.900785   -0.343227
 C     -3.173893   -1.159929   -0.962198
 C      2.701807    1.215508    1.592235
 N     -3.846845   -0.413341   -1.521442
 N      2.868514    2.235632    2.094224
