67

 Si     0.666866    2.086075   -0.605700
 O     -0.925892    1.974006   -0.366668
 C     -1.813736    2.486514    0.574053
 C     -1.953577    1.439081    1.645070
 H     -1.377408    3.383093    1.019896
 C     -3.144778    0.806978    1.953587
 C     -0.802711    1.077352    2.333068
 C     -3.185369   -0.180870    2.929758
 H     -4.055923    1.084895    1.442112
 C     -0.831079    0.086678    3.295007
 H      0.118355    1.588976    2.112693
 C     -2.029050   -0.550174    3.597029
 H     -4.129408   -0.660017    3.172113
 H      0.079789   -0.179474    3.823084
 H     -2.061410   -1.324152    4.358912
 C     -3.079799    2.872972   -0.142018
 C     -2.787002    3.851962   -1.197112
 H     -3.799099    3.305959    0.563228
 H     -3.541132    1.996713   -0.594995
 C     -2.515419    4.642063   -2.058188
 H     -2.292259    5.346738   -2.823947
 Cl     1.592523    2.663885   -2.289723
 Cl     1.076791    3.703397    0.564412
 O      1.531150    1.095981    0.500325
 O      0.437303    0.498433   -1.459336
 C      1.583776   -1.153529    0.120914
 C      0.127873   -1.147234    0.048891
 C     -1.670852   -0.338455   -1.237815
 C      3.560166    0.136604    0.150935
 C      4.355262   -0.991576   -0.012794
 C      2.334267   -2.307718   -0.036245
 C      3.708449   -2.223952   -0.104438
 C     -0.717801   -2.010439    0.719768
 C     -2.056883   -2.023375    0.396348
 C     -2.560058   -1.211235   -0.619310
 H      1.820940   -3.257214   -0.126366
 H      4.298096   -3.124415   -0.230662
 H     -0.311039   -2.669550    1.476611
 H     -2.724436   -2.705906    0.906535
 N      2.216467    0.019947    0.218105
 N     -0.379007   -0.319413   -0.870188
 C     -3.976774   -1.277307   -1.031314
 C     -4.323438   -1.301351   -2.378772
 C     -4.977509   -1.345535   -0.065645
 C     -5.653713   -1.373647   -2.755542
 H     -3.558000   -1.278821   -3.141757
 C     -6.308051   -1.409493   -0.441568
 H     -4.718114   -1.328712    0.983817
 C     -6.648718   -1.422037   -1.788468
 H     -5.911901   -1.393566   -3.810380
 H     -7.081788   -1.450516    0.319718
 H     -7.692881   -1.474341   -2.084864
 C      5.825647   -0.881516   -0.090862
 C      6.535222   -0.162296    0.865227
 C      6.505920   -1.513043   -1.128563
 C      7.913898   -0.069400    0.780583
 H      6.017745    0.317228    1.685566
 C      7.883930   -1.411968   -1.217056
 H      5.958044   -2.066945   -1.882043
 C      8.589292   -0.690319   -0.262040
 H      8.461837    0.491092    1.532478
 H      8.408506   -1.896646   -2.035438
 H      9.671023   -0.612372   -0.330383
 C      4.093199    1.464975    0.255986
 C     -2.023904    0.555058   -2.297572
 N      4.556567    2.513928    0.340492
 N     -2.308983    1.247943   -3.168547
