67

 Si     0.558281    2.024129   -0.723730
 O     -1.028677    1.949347   -0.478404
 C     -2.115574    2.229250    0.330700
 C     -2.049435    1.344620    1.544013
 H     -2.996261    1.951449   -0.256663
 C     -0.848184    1.174624    2.209649
 C     -3.172691    0.664571    1.989565
 C     -0.751334    0.306661    3.282087
 H      0.014149    1.727915    1.885069
 C     -3.087814   -0.198179    3.072559
 H     -4.121237    0.808025    1.485949
 C     -1.873087   -0.388073    3.715454
 H      0.201111    0.181870    3.788624
 H     -3.973756   -0.724799    3.415891
 H     -1.803314   -1.067821    4.560236
 C     -2.236976    3.696127    0.661555
 C     -2.293288    4.490243   -0.574765
 H     -1.392079    4.021336    1.265814
 H     -3.155674    3.858539    1.238871
 C     -2.334002    5.102691   -1.606066
 H     -2.374545    5.662507   -2.510186
 Cl     1.433576    2.558718   -2.447538
 Cl     1.020476    3.652882    0.408448
 O      1.465291    1.061330    0.376077
 O      0.308848    0.408116   -1.525566
 C      1.557669   -1.188778    0.032454
 C      0.100623   -1.210197    0.026618
 C     -1.768703   -0.479208   -1.203388
 C      3.504149    0.143325   -0.040198
 C      4.315213   -0.971044   -0.221102
 C      2.324420   -2.329915   -0.138522
 C      3.692405   -2.218042   -0.267197
 C     -0.692639   -2.080103    0.750626
 C     -2.041330   -2.141543    0.478514
 C     -2.605528   -1.369944   -0.536753
 H      1.828453   -3.291317   -0.191484
 H      4.295928   -3.107674   -0.404170
 H     -0.236868   -2.707998    1.506355
 H     -2.668382   -2.830842    1.029347
 N      2.167570   -0.001064    0.084596
 N     -0.464052   -0.412608   -0.887322
 C     -4.032650   -1.496096   -0.894312
 C     -4.428807   -1.544226   -2.227388
 C     -4.992633   -1.601248    0.109277
 C     -5.767921   -1.677033   -2.553016
 H     -3.694530   -1.494260   -3.019209
 C     -6.332226   -1.725096   -0.215591
 H     -4.695807   -1.565871    1.148731
 C     -6.722599   -1.761883   -1.548610
 H     -6.064520   -1.716025   -3.597148
 H     -7.074303   -1.793718    0.574652
 H     -7.773927   -1.861553   -1.804757
 C      5.778309   -0.831293   -0.363736
 C      6.512934   -0.089028    0.555023
 C      6.426139   -1.457204   -1.425209
 C      7.884331    0.032191    0.409717
 H      6.021111    0.386935    1.393061
 C      7.796565   -1.327746   -1.574431
 H      5.858041   -2.029161   -2.149679
 C      8.527001   -0.583152   -0.656648
 H      8.452236    0.610547    1.132699
 H      8.295452   -1.808234   -2.411135
 H      9.602804   -0.482878   -0.772665
 C      4.015808    1.482571    0.023075
 C     -2.201183    0.399861   -2.246503
 N      4.467892    2.538505    0.074954
 N     -2.560249    1.095971   -3.087165
