67

 Si     0.617707    1.793696   -0.040889
 O     -0.920767    1.444330    0.295336
 C     -1.867211    1.869509    1.226897
 C     -3.061259    2.290619    0.429833
 H     -1.461422    2.726670    1.767971
 C     -2.890309    3.378727   -0.417483
 C     -4.261739    1.601527    0.413528
 C     -3.899047    3.766763   -1.278091
 H     -1.952422    3.918251   -0.403741
 C     -5.280407    1.989131   -0.445076
 H     -4.424705    0.759822    1.069721
 C     -5.099920    3.067533   -1.295357
 H     -3.749483    4.615346   -1.938868
 H     -6.218593    1.442833   -0.446424
 H     -5.895646    3.368725   -1.970619
 C     -2.102631    0.749501    2.208600
 C     -0.845366    0.242263    2.774807
 H     -2.611612   -0.076614    1.721800
 H     -2.747851    1.094888    3.024777
 C      0.178593   -0.187299    3.229718
 H      1.080034   -0.550724    3.658028
 Cl     1.291100    2.691180   -1.708247
 Cl     0.923591    3.310482    1.284079
 O      1.706991    0.804837    0.840687
 O      0.500889    0.306614   -1.087052
 C      2.036092   -1.333292    0.111476
 C      0.595633   -1.539598    0.197647
 C     -1.447503   -0.821303   -0.728724
 C      3.799156    0.234381    0.154976
 C      4.718699   -0.720152   -0.264994
 C      2.915006   -2.320856   -0.300376
 C      4.245673   -2.012462   -0.489423
 C     -0.041467   -2.574854    0.853056
 C     -1.410289   -2.700419    0.732780
 C     -2.142431   -1.837036   -0.079825
 H      2.532528   -3.316589   -0.489234
 H      4.936656   -2.781212   -0.815040
 H      0.541493   -3.262166    1.454327
 H     -1.923708   -3.500984    1.251806
 N      2.503214   -0.099609    0.332234
 N     -0.126785   -0.683138   -0.533122
 C     -3.609019   -1.948694   -0.210969
 C     -4.228184   -1.873977   -1.453107
 C     -4.382861   -2.112876    0.935655
 C     -5.607788   -1.945580   -1.547694
 H     -3.638344   -1.770874   -2.353381
 C     -5.761991   -2.177233    0.841600
 H     -3.910503   -2.170862    1.908846
 C     -6.376935   -2.090756   -0.401443
 H     -6.081990   -1.888293   -2.523203
 H     -6.358920   -2.293855    1.741644
 H     -7.459823   -2.142230   -0.476381
 C      6.138734   -0.369766   -0.468457
 C      6.852198    0.302418    0.518405
 C      6.768364   -0.725141   -1.658218
 C      8.183477    0.622875    0.314523
 H      6.376673    0.568250    1.453248
 C      8.097424   -0.396300   -1.864417
 H      6.215288   -1.240641   -2.434803
 C      8.806398    0.277639   -0.877767
 H      8.735391    1.145088    1.090671
 H      8.580553   -0.665572   -2.799249
 H      9.849986    0.534302   -1.038764
 C      4.152121    1.600225    0.418871
 C     -2.041759    0.107573   -1.639154
 N      4.476572    2.683734    0.625798
 N     -2.515540    0.821226   -2.403751
