67

 Si    -0.461059    1.211995    2.174116
 O      0.212376    2.428069    1.361290
 C      0.090299    2.948160    0.076208
 C      0.835444    2.042054   -0.855337
 H     -0.959835    2.972258   -0.211088
 C      2.157600    1.742514   -0.580268
 C      0.202427    1.421659   -1.919391
 C      2.846732    0.827173   -1.355752
 H      2.645905    2.227365    0.252459
 C      0.879188    0.489132   -2.688656
 H     -0.829973    1.658842   -2.139451
 C      2.204155    0.187811   -2.406674
 H      3.885813    0.612872   -1.135095
 H      0.373357    0.001432   -3.517631
 H      2.738789   -0.533474   -3.017938
 C      0.621447    4.360384    0.104398
 C     -0.200398    5.209793    0.980791
 H      0.624807    4.786773   -0.906714
 H      1.648052    4.348875    0.473663
 C     -0.888765    5.883415    1.697255
 H     -1.489883    6.496309    2.325947
 Cl     0.277579    1.708358    3.999154
 Cl    -2.411948    1.103818    2.685042
 O     -0.827003    0.573333    0.497618
 O      0.357888   -0.304309    2.262173
 C     -1.171972   -1.649965    0.438990
 C      0.278061   -1.773377    0.502447
 C      2.320184   -0.922417    1.312092
 C     -2.905504   -0.139293   -0.070548
 C     -3.830216   -1.169908   -0.188824
 C     -2.055952   -2.712488    0.344576
 C     -3.384516   -2.466446    0.069000
 C      0.970460   -2.631642   -0.338718
 C      2.345526   -2.646624   -0.323447
 C      3.057418   -1.782950    0.508759
 H     -1.684010   -3.719977    0.487138
 H     -4.083607   -3.291101    0.000173
 H      0.409174   -3.274572   -1.005018
 H      2.884837   -3.329258   -0.969015
 N     -1.633844   -0.401119    0.295528
 N      0.968313   -0.964246    1.311631
 C      4.532774   -1.775997    0.531597
 C      5.223044   -1.770299    1.739349
 C      5.241152   -1.793476   -0.667353
 C      6.607534   -1.769179    1.748709
 H      4.685116   -1.779952    2.677843
 C      6.625086   -1.783667   -0.657699
 H      4.712001   -1.792566   -1.612198
 C      7.310334   -1.771107    0.551191
 H      7.138015   -1.767140    2.696501
 H      7.170930   -1.785232   -1.596818
 H      8.396989   -1.765533    0.559298
 C     -5.231899   -0.889947   -0.556900
 C     -5.533171   -0.097684   -1.659743
 C     -6.261230   -1.431351    0.208352
 C     -6.853156    0.155868   -1.991627
 H     -4.741416    0.312783   -2.272038
 C     -7.580786   -1.169473   -0.119042
 H     -6.033212   -2.041291    1.074715
 C     -7.878090   -0.375960   -1.220090
 H     -7.081073    0.771809   -2.856743
 H     -8.379505   -1.585053    0.488566
 H     -8.913707   -0.172160   -1.478541
 C     -3.188219    1.237915   -0.357806
 C      2.925808    0.076910    2.141735
 N     -3.365006    2.334999   -0.650851
 N      3.454342    0.897557    2.748711
