73

 Si    -0.532972    1.677414    1.591321
 O      0.559326    2.143539    0.510226
 C      1.593021    3.062773    0.408451
 C      2.678442    2.417722   -0.399708
 H      1.961498    3.318254    1.404445
 C      2.316736    1.665882   -1.507364
 C      4.018593    2.572018   -0.082985
 C      3.285066    1.088239   -2.308966
 H      1.267585    1.548427   -1.737512
 C      4.993928    1.994097   -0.883562
 H      4.305356    3.145459    0.791818
 C      4.629574    1.262505   -2.002624
 H      2.992820    0.514507   -3.183607
 H      6.042577    2.123636   -0.632371
 H      5.393640    0.826045   -2.637830
 C      1.070261    4.307251   -0.275006
 C     -0.042830    4.913771    0.471272
 H      0.719021    4.039927   -1.273239
 H      1.873732    5.045511   -0.382942
 C     -0.954729    5.391380    1.088682
 H     -1.759982    5.819041    1.636376
 Cl     0.221915    2.500012    3.296152
 Cl    -2.456941    2.156895    1.981425
 O     -1.138827    0.822184    0.029520
 O     -0.103868    0.079999    2.049430
 C     -1.638010   -1.315358    0.498140
 C     -0.191571   -1.473020    0.408416
 C      1.884737   -0.619106    1.142397
 C     -3.323234    0.178388   -0.197092
 C     -4.307244   -0.782300    0.051093
 C     -2.563869   -2.292198    0.816500
 C     -3.906319   -1.984946    0.608748
 C      0.433753   -2.311227   -0.507050
 C      1.817617   -2.305183   -0.529478
 C      2.576780   -1.483386    0.296395
 H     -4.657761   -2.727265    0.844394
 H      2.333235   -2.969601   -1.209146
 N     -2.045937   -0.092807    0.107232
 N      0.540152   -0.655864    1.170233
 C      4.051519   -1.538606    0.270354
 C      4.792406   -1.479480    1.446696
 C      4.712914   -1.692008   -0.944999
 C      6.174024   -1.545553    1.406249
 H      4.297626   -1.399245    2.403827
 C      6.093978   -1.756615   -0.987028
 H      4.151144   -1.736509   -1.868041
 C      6.828247   -1.678822    0.189027
 H      6.740111   -1.498205    2.331965
 H      6.599120   -1.865724   -1.942126
 H      7.913310   -1.729304    0.157463
 C     -5.727429   -0.495721   -0.239095
 C     -6.113775   -0.020058   -1.487454
 C     -6.686554   -0.710647    0.746153
 C     -7.448205    0.242334   -1.747498
 H     -5.377632    0.137600   -2.264446
 C     -8.019949   -0.439966    0.488028
 H     -6.390342   -1.070444    1.724552
 C     -8.402350    0.036008   -0.759792
 H     -7.742653    0.610383   -2.726026
 H     -8.762358   -0.599517    1.264680
 H     -9.448690    0.246894   -0.963254
 C     -3.587451    1.455644   -0.797332
 C      2.538710    0.318376    2.001624
 N     -3.812029    2.443649   -1.340991
 N      3.126749    1.054630    2.658581
 C     -2.154416   -3.620375    1.385542
 H     -1.081862   -3.679810    1.540132
 H     -2.647730   -3.763089    2.349461
 H     -2.467196   -4.434448    0.728482
 C     -0.359860   -3.180628   -1.440829
 H      0.276410   -3.537780   -2.247980
 H     -0.759692   -4.047975   -0.914200
 H     -1.191361   -2.627605   -1.873909
