73

 Si     0.069082    1.273839    0.954843
 O     -1.047179    2.338755    0.447478
 C     -1.932567    3.303402    0.885548
 C     -2.944085    3.532126   -0.198740
 H     -2.439283    2.951784    1.789543
 C     -2.564888    3.358337   -1.519136
 C     -4.244123    3.916150    0.095544
 C     -3.477930    3.548424   -2.543179
 H     -1.549664    3.063247   -1.737021
 C     -5.161139    4.113806   -0.925474
 H     -4.546118    4.055265    1.127870
 C     -4.781001    3.927483   -2.246859
 H     -3.170642    3.407503   -3.575417
 H     -6.177681    4.413507   -0.686868
 H     -5.499191    4.082592   -3.047101
 C     -1.187791    4.584020    1.207458
 C     -0.336697    4.462774    2.403624
 H     -1.903961    5.395272    1.380459
 H     -0.569333    4.853228    0.350207
 C      0.341469    4.362034    3.389679
 H      0.946616    4.277005    4.259974
 Cl    -0.710901    0.844600    2.769580
 Cl     1.672914    2.414246    0.505446
 O     -0.356782    0.320838   -0.421790
 O      1.135172   -0.164157    1.331875
 C      0.300462   -1.841239   -0.371969
 C      1.645039   -1.304859   -0.550799
 C      3.322690   -0.170606    0.658506
 C     -1.960236   -1.246826   -0.029602
 C     -2.318656   -2.580883    0.137987
 C      0.016040   -3.188770   -0.174542
 C     -1.303825   -3.529552    0.076692
 C      2.515268   -1.585651   -1.588341
 C      3.823031   -1.125635   -1.461667
 C      4.265430   -0.463093   -0.328376
 H     -1.560343   -4.569261    0.232005
 H      4.530745   -1.331504   -2.254215
 N     -0.673620   -0.933373   -0.264475
 N      2.045479   -0.537363    0.478900
 C      5.673421   -0.042870   -0.173726
 C      6.381558   -0.349822    0.983000
 C      6.295974    0.661819   -1.199789
 C      7.701069    0.048657    1.114733
 H      5.910935   -0.909246    1.780570
 C      7.613121    1.067068   -1.063735
 H      5.745718    0.913943   -2.098719
 C      8.317421    0.760045    0.093781
 H      8.248672   -0.197224    2.019937
 H      8.090322    1.626106   -1.863441
 H      9.351363    1.076770    0.200351
 C     -3.720668   -2.961922    0.400905
 C     -4.746720   -2.483849   -0.407392
 C     -4.015302   -3.808628    1.465719
 C     -6.057807   -2.846781   -0.150964
 H     -4.526419   -1.835646   -1.245271
 C     -5.327923   -4.163866    1.726673
 H     -3.221710   -4.174094    2.106949
 C     -6.350431   -3.684033    0.917783
 H     -6.853469   -2.472483   -0.788483
 H     -5.553265   -4.815492    2.565963
 H     -7.380416   -3.964040    1.121564
 C     -2.894642   -0.164024    0.058380
 C      3.642605    0.479431    1.898062
 N     -3.697074    0.652984    0.140252
 N      3.932044    0.942902    2.909665
 C      1.100630   -4.227884   -0.203239
 H      1.384134   -4.459764   -1.230866
 H      1.985491   -3.880869    0.327164
 H      0.751227   -5.144128    0.268380
 C      2.076926   -2.331109   -2.816913
 H      2.296147   -1.727554   -3.699950
 H      2.623265   -3.271787   -2.911647
 H      1.012000   -2.540072   -2.803344
