85

 Si     0.008690    0.609248    0.807644
 O     -1.293236    1.585919    0.712456
 C     -1.833683    2.837452    0.578580
 C     -2.039815    3.170954   -0.874915
 H     -2.813319    2.804111    1.066716
 C     -1.288939    2.540379   -1.848898
 C     -2.994155    4.106084   -1.255521
 C     -1.492544    2.819201   -3.190618
 H     -0.550553    1.819492   -1.553766
 C     -3.201006    4.394560   -2.594977
 H     -3.586261    4.609797   -0.499404
 C     -2.451871    3.747527   -3.568840
 H     -0.896142    2.311993   -3.943309
 H     -3.951803    5.126530   -2.879627
 H     -2.613106    3.971273   -4.619568
 C     -1.015489    3.911981    1.266266
 C     -0.835226    3.639866    2.700960
 H     -1.528182    4.874281    1.156612
 H     -0.038025    3.995685    0.795320
 C     -0.697659    3.420869    3.873430
 H     -0.567817    3.238936    4.912840
 Cl    -0.414573   -0.059070    2.670174
 Cl     1.439238    1.947255    0.354328
 O     -0.577785   -0.206698   -0.577698
 O      1.193940   -0.728837    0.839857
 C      0.044109   -2.383673   -0.704586
 C      1.357521   -1.880512   -1.087926
 C      3.221565   -0.683019   -0.254133
 C     -2.136240   -1.766153   -0.018104
 C     -2.473828   -3.105057    0.175548
 C     -0.253986   -3.716137   -0.548410
 C     -1.514949   -4.070080   -0.088953
 C      2.044827   -2.260511   -2.210720
 C      3.353495   -1.818523   -2.363951
 C      3.964452   -1.067163   -1.378087
 H      0.503058   -4.460084   -0.762446
 H     -1.761454   -5.116820    0.048543
 H      1.568658   -2.904879   -2.939211
 H      3.922656   -2.113140   -3.237884
 C      5.396634   -0.704412   -1.492338
 C      3.778750    0.057205    0.877184
 N     -0.894667   -1.469106   -0.421437
 N      1.935220   -1.059806   -0.188025
 C     -3.057431   -0.645555    0.144955
 C     -3.827997   -3.466983    0.651130
 C     -3.969518   -4.238725    1.798989
 C     -4.956970   -3.038223   -0.036477
 C     -6.359258   -4.136890    1.575643
 C     -6.219137   -3.373793    0.423381
 C     -5.232945   -4.569231    2.263001
 H     -3.092311   -4.568877    2.343409
 H     -5.336873   -5.165849    3.164757
 H     -7.350059   -4.397088    1.937824
 H     -7.097028   -3.038818   -0.121435
 H     -4.853650   -2.444875   -0.934513
 C     -3.606999   -0.359001    1.381242
 C     -3.414244    0.081708   -0.977446
 C     -4.908629    1.378566    0.367302
 C     -4.352824    1.086463   -0.869123
 C     -4.528116    0.664240    1.493444
 H     -3.317692   -0.931225    2.251546
 H     -4.961967    0.895374    2.461431
 H     -5.647791    2.170068    0.454022
 H     -4.651688    1.642728   -1.749843
 H     -2.975873   -0.150786   -1.936805
 C      3.552074   -0.399731    2.166093
 C      4.539912    1.199029    0.663202
 C      4.843442    1.426939    3.030488
 C      5.069282    1.885061    1.738173
 C      4.086821    0.283791    3.242746
 H      2.953212   -1.281845    2.329972
 H      3.909826   -0.077946    4.250982
 H      5.260976    1.965882    3.876739
 H      5.659152    2.780686    1.569287
 H      4.705896    1.559947   -0.340647
 C      6.301674   -1.113851   -0.520384
 C      5.839087    0.038709   -2.580184
 C      8.078719   -0.020992   -1.712171
 C      7.177323    0.384323   -2.687323
 C      7.639501   -0.774279   -0.630720
 H      5.963631   -1.699862    0.324133
 H      8.342282   -1.099811    0.130862
 H      9.128052    0.247862   -1.796645
 H      7.515774    0.972275   -3.535713
 H      5.135863    0.363666   -3.338431
