85

 Si    -0.639737    1.196434    0.758082
 O      0.925262    1.521604    0.503131
 C      1.527173    2.534220   -0.234671
 C      2.115782    1.876322   -1.449844
 H      0.751641    3.226153   -0.567224
 C      1.235652    1.178629   -2.267045
 C      3.457274    1.916425   -1.786951
 C      1.685830    0.519691   -3.394656
 H      0.188960    1.166477   -2.014755
 C      3.915261    1.266596   -2.925789
 H      4.159301    2.469125   -1.177067
 C      3.034339    0.559350   -3.727664
 H      0.983163   -0.014078   -4.027050
 H      4.968883    1.318951   -3.184597
 H      3.393362    0.050855   -4.618100
 C      2.481533    3.306821    0.638382
 C      1.849447    3.660343    1.915190
 H      2.802412    4.220946    0.124106
 H      3.368207    2.721045    0.857417
 C      1.328642    3.913939    2.965951
 H      0.872253    4.160707    3.894447
 Cl    -1.577564    0.964971    2.533329
 Cl    -1.442706    3.022436    0.304130
 O     -1.362526    0.512822   -0.631103
 O     -0.079804   -0.460627    1.048987
 C     -1.332927   -1.760946   -0.697504
 C      0.115802   -1.664037   -0.824923
 C      2.048092   -1.002961    0.374849
 C     -3.352062   -0.568998   -0.363180
 C     -4.064241   -1.766273   -0.285323
 C     -2.001652   -2.960148   -0.643612
 C     -3.371806   -2.956974   -0.421733
 C      0.866078   -2.285851   -1.786794
 C      2.247554   -2.274807   -1.649335
 C      2.847930   -1.686067   -0.553323
 H     -1.446043   -3.882697   -0.753303
 H     -3.910190   -3.896473   -0.370167
 H      0.376016   -2.796604   -2.606192
 H      2.862972   -2.789679   -2.377126
 C      4.304771   -1.844798   -0.335245
 C      2.561566   -0.329221    1.562700
 N     -2.024272   -0.620062   -0.542267
 N      0.724614   -1.007088    0.179660
 C     -3.969585    0.754581   -0.292222
 C     -5.528755   -1.744040   -0.066950
 C     -6.073477   -2.427627    1.014098
 C     -6.361020   -1.042112   -0.930556
 C     -8.269914   -1.693680    0.374816
 C     -7.727996   -1.018322   -0.711420
 C     -7.441146   -2.398883    1.237197
 H     -5.427900   -2.970320    1.695027
 H     -7.859567   -2.928540    2.088273
 H     -9.342302   -1.671957    0.548155
 H     -8.372837   -0.470601   -1.392572
 H     -5.944638   -0.515368   -1.778334
 C     -4.636086    1.150744    0.855360
 C     -3.915286    1.581308   -1.403026
 C     -5.201527    3.219144   -0.217620
 C     -4.538822    2.813685   -1.367927
 C     -5.246912    2.390225    0.894494
 H     -4.669140    0.498373    1.717189
 H     -5.762627    2.709087    1.794944
 H     -5.688589    4.189913   -0.188180
 H     -4.506254    3.460946   -2.238636
 H     -3.389725    1.261074   -2.291614
 C      1.911725   -0.464075    2.779752
 C      3.715055    0.434849    1.477928
 C      3.551587    0.948278    3.812411
 C      4.211823    1.070633    2.598559
 C      2.402513    0.176595    3.900811
 H      1.025880   -1.070763    2.856038
 H      1.887819    0.065162    4.850201
 H      3.939026    1.450899    4.694394
 H      5.115873    1.667227    2.524748
 H      4.224342    0.538446    0.534340
 C      4.774441   -2.384887    0.857244
 C      5.205265   -1.494098   -1.332863
 C      7.033619   -2.182573    0.065191
 C      6.567237   -1.654770   -1.130911
 C      6.133769   -2.553181    1.056912
 H      4.078436   -2.677138    1.631920
 H      6.492167   -2.977519    1.990363
 H      8.100741   -2.312065    0.223478
 H      7.265255   -1.369048   -1.912637
 H      4.843286   -1.076077   -2.262186
