85

 Si    -0.111067    0.631448    1.181917
 O      0.338719    1.420767   -0.152265
 C      0.537166    2.744588   -0.512517
 C     -0.611617    3.585765   -0.040142
 H      1.463859    3.110204   -0.062953
 C     -1.899649    3.096768   -0.184951
 C     -0.411904    4.823805    0.547853
 C     -2.983987    3.828483    0.261735
 H     -2.047495    2.131803   -0.640569
 C     -1.496283    5.566973    0.991632
 H      0.594024    5.209576    0.669520
 C     -2.783378    5.069946    0.852172
 H     -3.986592    3.430401    0.150245
 H     -1.332427    6.536232    1.453886
 H     -3.631952    5.649560    1.204223
 C      0.649731    2.769591   -2.020351
 C      1.730936    1.905423   -2.523147
 H      0.824920    3.792044   -2.377535
 H     -0.291839    2.420347   -2.446217
 C      2.610491    1.204718   -2.945645
 H      3.401734    0.617628   -3.340974
 Cl    -1.916232    0.485424    2.073799
 Cl     0.666185    1.936215    2.559743
 O     -0.623217   -0.547995   -0.082847
 O      0.961028   -0.604677    1.659579
 C     -0.255834   -2.673564    0.552740
 C      1.129617   -2.359828    0.223849
 C      2.888785   -0.790856    0.446838
 C     -2.457679   -1.899598    0.168694
 C     -2.965971   -3.130754    0.596965
 C     -0.713278   -3.888896    0.994517
 C     -2.086166   -4.096795    1.050794
 C      1.868509   -3.102244   -0.665021
 C      3.138870   -2.666700   -1.009860
 C      3.668273   -1.510503   -0.460894
 H     -0.005072   -4.660042    1.271300
 H     -2.472969   -5.049182    1.394237
 H      1.441523   -4.001277   -1.090982
 H      3.733426   -3.247048   -1.705675
 C      5.034304   -1.058747   -0.811735
 C      3.345492    0.409099    1.145969
 N     -1.133707   -1.703429    0.233765
 N      1.658911   -1.238561    0.737927
 C     -3.266746   -0.827374   -0.412568
 C     -4.422162   -3.397443    0.543848
 C     -5.110068   -3.717570    1.708119
 C     -5.102434   -3.333722   -0.666398
 C     -7.153100   -3.889896    0.455239
 C     -6.464156   -3.580984   -0.710937
 C     -6.474584   -3.958743    1.664602
 H     -4.583940   -3.763058    2.654835
 H     -7.008351   -4.200849    2.579215
 H     -8.222103   -4.081081    0.420272
 H     -6.989600   -3.532956   -1.660397
 H     -4.569390   -3.093135   -1.576839
 C     -4.421599   -0.382245    0.214878
 C     -2.880003   -0.286443   -1.629111
 C     -4.808980    1.137967   -1.599615
 C     -3.653963    0.692432   -2.225827
 C     -5.189674    0.602737   -0.375549
 H     -4.715523   -0.798599    1.167111
 H     -6.091130    0.951712    0.119025
 H     -5.416982    1.907544   -2.067594
 H     -3.354608    1.107783   -3.183251
 H     -1.975602   -0.628303   -2.108501
 C      3.535422    0.358528    2.518047
 C      3.638156    1.556417    0.430156
 C      4.319141    2.622581    2.467012
 C      4.117974    2.669674    1.094850
 C      4.030721    1.466151    3.178457
 H      3.299111   -0.542995    3.065781
 H      4.189707    1.428716    4.251562
 H      4.707350    3.494096    2.987033
 H      4.345566    3.573935    0.538726
 H      3.479263    1.580525   -0.637868
 C      5.954777   -0.731271    0.176712
 C      5.408943   -0.980443   -2.149288
 C      7.592553   -0.216568   -1.504800
 C      6.680870   -0.554826   -2.496080
 C      7.228615   -0.311781   -0.168028
 H      5.683711   -0.809336    1.219518
 H      7.941001   -0.060769    0.612562
 H      8.591209    0.115818   -1.774574
 H      6.960585   -0.488950   -3.543660
 H      4.701836   -1.243388   -2.926294
