85

 Si     0.461938    1.009545   -0.089379
 O     -1.072656    0.911941    0.391991
 C     -1.985804    1.351098    1.321460
 C     -2.639763    2.621078    0.863084
 H     -2.754239    0.571870    1.363134
 C     -2.106915    3.333924   -0.195068
 C     -3.818230    3.060362    1.454371
 C     -2.737093    4.473968   -0.665879
 H     -1.196839    2.998075   -0.660102
 C     -4.452052    4.201260    0.990369
 H     -4.248951    2.505112    2.280339
 C     -3.912606    4.911756   -0.074075
 H     -2.304448    5.020725   -1.498403
 H     -5.372483    4.536057    1.460555
 H     -4.408808    5.806230   -0.439809
 C     -1.385251    1.438301    2.705811
 C     -0.780145    0.155753    3.100944
 H     -2.171373    1.690305    3.426562
 H     -0.623948    2.213279    2.746133
 C     -0.291547   -0.891400    3.426916
 H      0.142315   -1.800243    3.762288
 Cl     1.143009    1.677973   -1.871645
 Cl     1.049058    2.645333    0.984149
 O      1.416000   -0.011471    0.873885
 O      0.095377   -0.470073   -0.993282
 C      1.544493   -2.169601    0.151577
 C      0.102664   -2.256480    0.352460
 C     -1.942754   -1.397235   -0.486532
 C      3.433622   -0.740782    0.123915
 C      4.227688   -1.770409   -0.380324
 C      2.297751   -3.213744   -0.330350
 C      3.642260   -3.005208   -0.603726
 C     -0.544785   -3.213463    1.088299
 C     -1.932239   -3.245745    1.042865
 C     -2.639723   -2.372013    0.238307
 H      1.824408   -4.171254   -0.507055
 H      4.245358   -3.820359   -0.987095
 H      0.026886   -3.926925    1.668281
 H     -2.470892   -3.997327    1.608328
 C     -4.112997   -2.486733    0.130283
 C     -2.558186   -0.418049   -1.379423
 N      2.134735   -0.980345    0.354911
 N     -0.610556   -1.366552   -0.358567
 C      3.924936    0.600163    0.440439
 C      5.661490   -1.529910   -0.661060
 C      6.166164   -1.783246   -1.931538
 C      6.504062   -1.046410    0.332772
 C      8.341479   -1.057667   -1.215205
 C      7.840736   -0.812656    0.057162
 C      7.502744   -1.543691   -2.209316
 H      5.511648   -2.152971   -2.712458
 H      7.888950   -1.736270   -3.206166
 H      9.389703   -0.870950   -1.431804
 H      8.494133   -0.437915    0.839739
 H      6.119665   -0.854559    1.325275
 C      3.904407    1.033889    1.756338
 C      4.425718    1.409134   -0.566432
 C      4.896723    3.102784    1.064449
 C      4.906618    2.667033   -0.253250
 C      4.398579    2.285464    2.069813
 H      3.502119    0.396075    2.530681
 H      4.392290    2.626023    3.100364
 H      5.281220    4.088808    1.310290
 H      5.292170    3.308419   -1.039711
 H      4.431577    1.061713   -1.590827
 C     -3.717572    0.247328   -1.006255
 C     -1.967339   -0.135181   -2.600726
 C     -3.661188    1.503706   -3.044445
 C     -2.516569    0.823290   -3.431460
 C     -4.265100    1.208577   -1.830295
 H     -4.195855    0.023619   -0.068480
 H     -5.163636    1.732609   -1.522069
 H     -4.089644    2.261885   -3.694196
 H     -2.046752    1.037531   -4.386457
 H     -1.077632   -0.659677   -2.905662
 C     -4.900346   -2.369147    1.269716
 C     -4.710407   -2.717076   -1.103007
 C     -6.875189   -2.690748   -0.060446
 C     -6.088178   -2.820318   -1.197827
 C     -6.279872   -2.466178    1.173752
 H     -4.437712   -2.186954    2.232964
 H     -6.890813   -2.366846    2.066464
 H     -7.956267   -2.768820   -0.136039
 H     -6.549179   -3.003328   -2.164215
 H     -4.100162   -2.816059   -1.991379
