85

 Si    -0.371711    0.871622    1.435554
 O      0.250904    1.661784    0.180303
 C      1.016584    2.753445   -0.159648
 C      2.092523    2.280836   -1.095416
 H      1.466582    3.196344    0.733675
 C      1.845813    1.158150   -1.869561
 C      3.314065    2.928633   -1.197741
 C      2.816195    0.669340   -2.726843
 H      0.885062    0.674444   -1.786987
 C      4.291115    2.441765   -2.054977
 H      3.509929    3.810619   -0.597313
 C      4.046505    1.308845   -2.816999
 H      2.608931   -0.204727   -3.336216
 H      5.248503    2.950442   -2.126220
 H      4.811522    0.930400   -3.488530
 C      0.110428    3.769292   -0.823772
 C     -0.980990    4.175857    0.074754
 H      0.679347    4.657667   -1.123169
 H     -0.319510    3.323261   -1.722067
 C     -1.862552    4.486208    0.827889
 H     -2.639694    4.772449    1.494398
 Cl     0.715005    1.804395    2.905494
 Cl    -2.165675    1.086527    2.332876
 O     -1.109461   -0.012954    0.053896
 O      0.284412   -0.659845    1.826801
 C     -1.410534   -2.197580    0.459412
 C      0.029474   -2.274212    0.236701
 C      2.162417   -1.381012    0.746971
 C     -3.267917   -0.772687    0.096783
 C     -4.136519   -1.841802    0.344245
 C     -2.228181   -3.265538    0.730577
 C     -3.603339   -3.067073    0.702803
 C      0.582069   -3.129376   -0.686131
 C      1.951705   -3.095910   -0.903349
 C      2.759836   -2.234151   -0.183518
 H     -1.793940   -4.235160    0.940247
 H     -4.270029   -3.896671    0.907383
 H     -0.061981   -3.805993   -1.233220
 H      2.398455   -3.770868   -1.624316
 C      4.229555   -2.231484   -0.365493
 C      2.919217   -0.477001    1.609663
 N     -1.951402   -0.988635    0.224479
 N      0.828883   -1.420034    0.899612
 C     -3.684667    0.562570   -0.331904
 C     -5.600385   -1.666724    0.203045
 C     -6.437445   -1.934542    1.279736
 C     -6.141827   -1.241820   -1.004514
 C     -8.345552   -1.335454   -0.051903
 C     -7.510826   -1.078286   -1.132256
 C     -7.807482   -1.764353    1.154000
 H     -6.019038   -2.260709    2.225041
 H     -8.455671   -1.967682    2.001655
 H     -9.419472   -1.204078   -0.151686
 H     -7.927783   -0.749158   -2.079710
 H     -5.495153   -1.039712   -1.848206
 C     -4.707178    1.231206    0.326961
 C     -3.049202    1.153591   -1.413350
 C     -4.455736    3.080585   -1.178598
 C     -3.437184    2.409902   -1.839324
 C     -5.090031    2.490177   -0.093252
 H     -5.194537    0.774369    1.175455
 H     -5.886847    3.012799    0.427099
 H     -4.757278    4.070322   -1.510318
 H     -2.942966    2.867526   -2.690144
 H     -2.251362    0.634347   -1.919514
 C      2.856666   -0.641035    2.984989
 C      3.752480    0.475957    1.048102
 C      4.451307    1.129110    3.245562
 C      4.510003    1.289912    1.867949
 C      3.629960    0.159347    3.803523
 H      2.207896   -1.391662    3.412532
 H      3.588572    0.029261    4.880317
 H      5.055334    1.761853    3.890237
 H      5.156500    2.043985    1.430988
 H      3.806625    0.581407   -0.022048
 C      5.075398   -2.411345    0.722970
 C      4.768609   -2.057297   -1.634296
 C      6.984767   -2.209369   -0.720872
 C      6.142893   -2.039608   -1.811358
 C      6.448203   -2.400988    0.546188
 H      4.664522   -2.563156    1.711331
 H      7.101859   -2.544482    1.401693
 H      8.062481   -2.197734   -0.858677
 H      6.556356   -1.893580   -2.805061
 H      4.115589   -1.915063   -2.485413
