85

 Si     0.130344    0.622621    0.818571
 O     -1.093256    1.711180    0.787049
 C     -1.184859    3.083783    0.659954
 C     -1.689844    3.392862   -0.724503
 H     -0.185622    3.518705    0.758310
 C     -2.678789    4.323493   -0.997167
 C     -1.120337    2.693977   -1.779798
 C     -3.104296    4.539962   -2.301688
 H     -3.133843    4.891447   -0.197028
 C     -1.541944    2.897220   -3.079820
 H     -0.345118    1.979504   -1.570678
 C     -2.543210    3.823667   -3.346159
 H     -3.881367    5.273685   -2.497190
 H     -1.084800    2.337945   -3.890762
 H     -2.877827    3.990970   -4.366043
 C     -2.035338    3.619609    1.783726
 C     -1.428901    3.348262    3.095935
 H     -2.161073    4.703327    1.688313
 H     -3.018336    3.155690    1.745880
 C     -0.924249    3.143470    4.165782
 H     -0.486301    2.972029    5.119299
 Cl    -0.338486   -0.138875    2.631503
 Cl     1.668527    1.877380    0.490137
 O     -0.538290   -0.073156   -0.594605
 O      1.219059   -0.799867    0.745476
 C     -0.045452   -2.267714   -0.895133
 C      1.291102   -1.817007   -1.262377
 C      3.239614   -0.818275   -0.363671
 C     -2.167601   -1.580185   -0.102384
 C     -2.581649   -2.907847   -0.004695
 C     -0.420044   -3.588773   -0.834106
 C     -1.689939   -3.903482   -0.371199
 C      1.941191   -2.154113   -2.420480
 C      3.275718   -1.791232   -2.557246
 C      3.945228   -1.164343   -1.523608
 H      0.286350   -4.356625   -1.123540
 H     -1.996321   -4.941531   -0.308472
 H      1.415855   -2.706655   -3.189499
 H      3.815721   -2.053383   -3.459548
 C      5.398731   -0.895366   -1.627983
 C      3.858366   -0.214268    0.815607
 N     -0.921057   -1.324882   -0.519496
 N      1.929808   -1.106834   -0.310524
 C     -3.011877   -0.423337    0.178856
 C     -3.944266   -3.226057    0.477859
 C     -4.107261   -4.077633    1.564770
 C     -5.059809   -2.677373   -0.143251
 C     -6.490632   -3.816783    1.414561
 C     -6.329641   -2.973427    0.322537
 C     -5.377983   -4.368918    2.035117
 H     -3.240067   -4.501923    2.057551
 H     -5.498282   -5.028877    2.889460
 H     -7.487261   -4.046373    1.781426
 H     -7.197253   -2.544359   -0.170285
 H     -4.940085   -2.020771   -0.994019
 C     -3.523367   -0.215358    1.447325
 C     -3.339962    0.421285   -0.866711
 C     -4.725766    1.683442    0.618840
 C     -4.209335    1.469333   -0.649378
 C     -4.375128    0.848332    1.669244
 H     -3.260350   -0.881887    2.256640
 H     -4.779263    1.017079    2.662593
 H     -5.414793    2.505940    0.789553
 H     -4.487873    2.116783   -1.471467
 H     -2.935194    0.247389   -1.852235
 C      3.606911   -0.756223    2.066433
 C      4.703436    0.880093    0.684218
 C      5.042926    0.889130    3.057597
 C      5.292781    1.433315    1.803625
 C      4.201686   -0.206263    3.187238
 H      2.942675   -1.600243    2.166702
 H      4.005244   -0.634803    4.165254
 H      5.507856    1.323297    3.938673
 H      5.948341    2.292407    1.699493
 H      4.889134    1.308213   -0.289296
 C      6.280017   -1.445857   -0.705084
 C      5.884296   -0.098760   -2.658032
 C      8.120918   -0.387359   -1.829038
 C      7.242924    0.159064   -2.755450
 C      7.637747   -1.193625   -0.806100
 H      5.907754   -2.073555    0.093868
 H      8.321621   -1.629219   -0.083289
 H      9.186086   -0.187381   -1.906141
 H      7.615649    0.788955   -3.558149
 H      5.199984    0.335927   -3.377648
