85

 Si    -0.284425    0.015217    1.929645
 O      0.481625    1.347871    1.422984
 C      0.216721    2.335774    0.483884
 C      1.237856    2.209245   -0.608223
 H     -0.761810    2.166654    0.048676
 C      2.441396    2.897030   -0.585701
 C      0.991041    1.319406   -1.643187
 C      3.383230    2.702194   -1.584634
 H      2.650265    3.596216    0.213385
 C      1.925377    1.120584   -2.645628
 H      0.055427    0.787235   -1.658790
 C      3.127672    1.812088   -2.617916
 H      4.320185    3.251024   -1.555056
 H      1.710726    0.436168   -3.460025
 H      3.863404    1.662176   -3.402778
 C      0.179037    3.660219    1.204948
 C     -0.974450    3.694107    2.119336
 H      0.096953    4.491667    0.494660
 H      1.093229    3.790673    1.784909
 C     -1.923360    3.686210    2.854287
 H     -2.755854    3.693806    3.515538
 Cl     0.653690   -0.039706    3.744985
 Cl    -2.149510   -0.201439    2.665412
 O     -0.928624    0.004111    0.239666
 O      0.451836   -1.446487    1.458332
 C     -1.146030   -2.084905   -0.563614
 C      0.299697   -2.017049   -0.737753
 C      2.363631   -1.375465    0.224402
 C     -3.048816   -0.716506   -0.248917
 C     -3.881372   -1.786713   -0.588655
 C     -1.928545   -3.162471   -0.896419
 C     -3.309461   -3.015592   -0.865992
 C      0.922704   -2.326151   -1.924411
 C      2.293226   -2.154121   -2.030362
 C      3.031602   -1.671926   -0.961481
 H     -1.459229   -4.094413   -1.185898
 H     -3.946128   -3.854350   -1.122389
 H      0.329271   -2.678537   -2.758619
 H      2.794159   -2.388769   -2.962458
 C      4.503438   -1.538953   -1.041424
 C      3.034543   -0.967985    1.461274
 N     -1.727676   -0.933288   -0.176196
 N      1.037439   -1.561361    0.285944
 C     -3.517560    0.652668   -0.030631
 C     -5.347885   -1.593305   -0.661124
 C     -6.185678   -2.362464    0.137702
 C     -5.890612   -0.648442   -1.523696
 C     -8.098214   -1.230138   -0.774970
 C     -7.262301   -0.468359   -1.581705
 C     -7.558539   -2.177823    0.084351
 H     -5.766121   -3.096603    0.816037
 H     -8.207678   -2.776826    0.716662
 H     -9.174310   -1.086553   -0.818823
 H     -7.680428    0.269233   -2.260660
 H     -5.243486   -0.053031   -2.153904
 C     -4.520769    0.931671    0.885494
 C     -2.967110    1.669218   -0.794231
 C     -4.396537    3.254090    0.294933
 C     -3.405182    2.970880   -0.632609
 C     -4.956281    2.232427    1.051592
 H     -4.952623    0.135900    1.474861
 H     -5.736716    2.450741    1.774172
 H     -4.738571    4.276754    0.427567
 H     -2.972934    3.765360   -1.233074
 H     -2.201930    1.442856   -1.520804
 C      3.476028   -1.952506    2.329998
 C      3.243391    0.369554    1.739922
 C      4.365280   -0.249570    3.764940
 C      3.914526    0.729753    2.892600
 C      4.142083   -1.590820    3.486645
 H      3.304286   -2.997060    2.103207
 H      4.492555   -2.357982    4.170456
 H      4.894438    0.033949    4.670420
 H      4.081661    1.778807    3.113438
 H      2.867955    1.123291    1.071054
 C      5.267250   -2.644236   -1.403176
 C      5.130172   -0.333362   -0.757729
 C      7.270922   -1.338299   -1.181400
 C      6.509396   -0.231703   -0.829548
 C      6.647627   -2.545633   -1.468723
 H      4.785566   -3.590887   -1.618688
 H      7.237686   -3.415023   -1.744275
 H      8.353289   -1.259167   -1.234249
 H      6.990851    0.716846   -0.610504
 H      4.542414    0.532304   -0.497268
