85

 Si    -0.185590    0.427031    1.629092
 O      0.333483    1.440854    0.476895
 C     -0.349755    1.967780   -0.602072
 C     -0.681451    3.406868   -0.332512
 H     -1.274977    1.417049   -0.757743
 C      0.183758    4.171844    0.431809
 C     -1.839004    3.979678   -0.840397
 C     -0.103143    5.500550    0.696357
 H      1.071768    3.711990    0.836991
 C     -2.128729    5.311596   -0.582930
 H     -2.521126    3.383532   -1.436106
 C     -1.261303    6.074122    0.186415
 H      0.577514    6.090042    1.303488
 H     -3.036869    5.754142   -0.982442
 H     -1.488627    7.116565    0.391022
 C      0.509082    1.818363   -1.836519
 C      0.648409    0.420190   -2.275218
 H      0.076876    2.383696   -2.670515
 H      1.495214    2.234467   -1.632336
 C      0.721784   -0.706275   -2.684970
 H      0.787087   -1.685114   -3.089747
 Cl    -2.071129    0.225293    2.307818
 Cl     0.471913    1.536996    3.216320
 O     -0.591025   -0.616968    0.212795
 O      0.989516   -0.767633    1.931955
 C     -0.049331   -2.767721    0.576525
 C      1.297248   -2.296251    0.281505
 C      2.828113   -0.522026    0.592019
 C     -2.304348   -2.144370    0.235382
 C     -2.708149   -3.456226    0.510180
 C     -0.403593   -4.060185    0.864631
 C     -1.754278   -4.389494    0.871730
 C      2.078625   -2.838154   -0.708297
 C      3.242483   -2.179186   -1.077863
 C      3.619063   -1.006383   -0.449834
 H      0.367366   -4.795492    1.059590
 H     -2.060144   -5.404445    1.097275
 H      1.751793   -3.740104   -1.209902
 H      3.860699   -2.581640   -1.872298
 C      4.831097   -0.262778   -0.861456
 C      3.183583    0.639770    1.402369
 N     -1.005235   -1.839841    0.359490
 N      1.705638   -1.180145    0.902484
 C     -3.196606   -1.096441   -0.260629
 C     -4.134934   -3.837510    0.392600
 C     -4.810524   -4.338587    1.498794
 C     -4.799536   -3.700532   -0.820262
 C     -6.811674   -4.545234    0.184934
 C     -6.134068   -4.054906   -0.924319
 C     -6.148336   -4.687539    1.396286
 H     -4.297140   -4.442375    2.447929
 H     -6.673112   -5.071473    2.266476
 H     -7.859605   -4.820435    0.103614
 H     -6.647012   -3.948523   -1.875860
 H     -4.275487   -3.319135   -1.686707
 C     -4.394983   -0.809508    0.377325
 C     -2.838241   -0.417990   -1.414574
 C     -4.870113    0.849565   -1.289394
 C     -3.676212    0.553665   -1.931274
 C     -5.228718    0.166638   -0.133570
 H     -4.670298   -1.339282    1.277457
 H     -6.162879    0.395669    0.370196
 H     -5.528778    1.614097   -1.692707
 H     -3.397344    1.077890   -2.840291
 H     -1.903973   -0.643369   -1.905236
 C      3.496868    0.455774    2.739315
 C      3.274868    1.890838    0.819029
 C      3.988891    2.793882    2.920457
 C      3.670317    2.972725    1.581472
 C      3.906450    1.535319    3.498358
 H      3.424691   -0.527321    3.183121
 H      4.162081    1.394280    4.543807
 H      4.310605    3.642755    3.517562
 H      3.742792    3.956419    1.128492
 H      3.035932    2.016052   -0.224757
 C      5.857821   -0.018783    0.041750
 C      4.929231    0.205148   -2.166746
 C      7.070045    1.169510   -1.658848
 C      6.045798    0.924087   -2.563769
 C      6.976029    0.694313   -0.356932
 H      5.788407   -0.387454    1.056277
 H      7.777928    0.878717    0.352134
 H      7.946708    1.731080   -1.969828
 H      6.115173    1.293374   -3.582978
 H      4.124627    0.022610   -2.869679
