85

 Si     0.623779    1.047080   -0.104755
 O     -0.933319    1.168204    0.309638
 C     -1.612359    1.988524    1.194617
 C     -2.508586    2.889499    0.399025
 H     -0.887643    2.606899    1.730372
 C     -1.999012    3.399872   -0.786572
 C     -3.786360    3.249575    0.795661
 C     -2.754843    4.246961   -1.574507
 H     -0.998980    3.133324   -1.088327
 C     -4.548793    4.103897    0.011291
 H     -4.200360    2.874463    1.722602
 C     -4.037866    4.601101   -1.177035
 H     -2.339127    4.637077   -2.498657
 H     -5.548327    4.380751    0.334790
 H     -4.635695    5.268506   -1.791228
 C     -2.296129    1.103944    2.207169
 C     -1.318555    0.221864    2.860754
 H     -2.787684    1.707150    2.977946
 H     -3.056692    0.493395    1.728943
 C     -0.503302   -0.480470    3.391898
 H      0.207128   -1.093134    3.889322
 Cl     1.399012    1.459393   -1.925666
 Cl     1.341569    2.715840    0.835958
 O      1.495700    0.041678    0.956097
 O      0.129843   -0.478967   -0.857711
 C      1.531241   -2.156781    0.364869
 C      0.094290   -2.164102    0.609748
 C     -1.935072   -1.263071   -0.222364
 C      3.480964   -0.818281    0.239438
 C      4.218707   -1.908905   -0.222448
 C      2.226719   -3.257930   -0.072395
 C      3.574256   -3.124015   -0.377878
 C     -0.567808   -3.041630    1.424958
 C     -1.956183   -3.007764    1.427691
 C     -2.648926   -2.155619    0.590206
 H      1.707817   -4.200632   -0.191311
 H      4.133492   -3.983634   -0.729266
 H     -0.009107   -3.741571    2.033405
 H     -2.509132   -3.693932    2.058594
 C     -4.128876   -2.215352    0.541862
 C     -2.540819   -0.358645   -1.196632
 N      2.175319   -0.985259    0.493950
 N     -0.600042   -1.283819   -0.133519
 C      4.046667    0.506671    0.491177
 C      5.658970   -1.752574   -0.529164
 C      6.134430   -2.089434   -1.791418
 C      6.537347   -1.268696    0.432940
 C      8.352387   -1.443795   -1.131475
 C      7.880563   -1.116279    0.133358
 C      7.477837   -1.931131   -2.093532
 H      5.452370   -2.460276   -2.547853
 H      7.841380   -2.188777   -3.084190
 H      9.405929   -1.320914   -1.367036
 H      8.561825   -0.740854    0.891467
 H      6.175777   -1.013131    1.419609
 C      4.599778    1.234479   -0.549595
 C      4.054127    1.001073    1.785662
 C      5.175322    2.968964    1.002770
 C      4.626261    2.232060    2.043049
 C      5.158336    2.472753   -0.293309
 H      4.585110    0.840178   -1.556518
 H      5.584306    3.051211   -1.107207
 H      5.621567    3.938933    1.204121
 H      4.640841    2.619721    3.056741
 H      3.613723    0.425855    2.587693
 C     -1.959010   -0.216450   -2.447713
 C     -3.709215    0.329561   -0.903916
 C     -3.700420    1.299349   -3.093675
 C     -4.291433    1.148803   -1.848631
 C     -2.531999    0.614376   -3.390980
 H     -1.060906   -0.757554   -2.690593
 H     -2.068304    0.716261   -4.367393
 H     -4.156725    1.946290   -3.837476
 H     -5.206683    1.677087   -1.609221
 H     -4.177239    0.225450    0.058208
 C     -4.780605   -2.547761   -0.639347
 C     -4.866748   -1.949037    1.689174
 C     -6.901661   -2.320440    0.466895
 C     -6.251719   -1.996195    1.650327
 C     -6.164019   -2.601026   -0.676298
 H     -4.208499   -2.762898   -1.532617
 H     -6.668214   -2.863387   -1.601988
 H     -7.987042   -2.360120    0.436386
 H     -6.823917   -1.781282    2.548373
 H     -4.360734   -1.692549    2.612661
