69

 Si    -0.438835    1.366794    1.701495
 O      0.754594    1.864453    0.723479
 C      0.999990    1.995219   -0.630201
 C      2.481958    1.896038   -0.858162
 H      0.497840    1.207362   -1.188401
 C      3.349906    2.379668    0.106479
 C      2.989954    1.397890   -2.050760
 C      4.718200    2.372796   -0.114791
 H      2.944026    2.764659    1.031610
 C      4.357526    1.397186   -2.280629
 H      2.314014    1.026855   -2.814153
 C      5.224545    1.886926   -1.313190
 H      5.389985    2.757299    0.647348
 H      4.747520    1.015311   -3.220130
 H      6.295915    1.889333   -1.493258
 C      0.492948    3.335672   -1.117525
 C     -0.974341    3.435810   -1.161363
 H      0.870276    3.533789   -2.127127
 H      0.883828    4.111624   -0.456667
 C     -2.168338    3.538391   -1.233285
 H     -3.220493    3.669566   -1.301449
 Cl     0.652206    1.759111    3.393020
 Cl    -2.150696    2.280150    2.256634
 O     -1.203892    0.852077    0.157148
 O     -0.402087   -0.325996    1.977395
 C     -1.628551   -1.348691   -0.069004
 C     -0.182423   -1.496479    0.029508
 C      1.695024   -0.939829    1.343852
 C     -3.380315    0.209337    0.039634
 C     -4.347117   -0.775284   -0.116340
 C     -2.533534   -2.367624   -0.243355
 C     -3.892478   -2.075714   -0.263822
 C      0.632351   -2.173810   -0.848322
 C      1.994472   -2.236287   -0.596775
 C      2.561875   -1.626165    0.515934
 H     -2.175306   -3.385433   -0.341649
 H     -4.593105   -2.890447   -0.389256
 H      0.197997   -2.646080   -1.721136
 H      2.621019   -2.784068   -1.288806
 C      4.036174   -1.775979    0.866066
 H      1.958756   -0.393880    2.234658
 N     -2.088032   -0.089571    0.064388
 N      0.389306   -0.910525    1.090462
 H     -3.572372    1.261303    0.159122
 C     -5.814053   -0.369574   -0.104830
 C     -6.051651    0.637471   -1.238122
 C     -6.734323   -1.573375   -0.305827
 C     -6.120731    0.277259    1.253250
 H     -5.807916    0.210188   -2.210426
 H     -7.098339    0.935880   -1.263725
 H     -5.460952    1.542902   -1.111664
 H     -7.772676   -1.246827   -0.291985
 H     -6.563905   -2.064653   -1.262934
 H     -6.619851   -2.313523    0.484827
 H     -5.519523    1.167679    1.427718
 H     -7.166552    0.576200    1.301112
 H     -5.938486   -0.415185    2.074336
 C      4.894218   -1.637208   -0.392697
 C      4.473204   -0.723336    1.885521
 C      4.213745   -3.178247    1.468432
 H      4.737999   -0.677468   -0.874981
 H      5.948652   -1.708578   -0.133332
 H      4.693231   -2.421488   -1.119006
 H      3.936396   -3.958730    0.760852
 H      5.254443   -3.340481    1.744628
 H      3.611496   -3.308636    2.367115
 H      4.287790    0.285558    1.526588
 H      3.975945   -0.844102    2.845914
 H      5.541548   -0.814482    2.070556
