69

 Si     1.208161   -0.184115   -0.524229
 O      1.796482   -1.397084    0.405642
 C      1.426429   -2.706164    0.609492
 C      2.500107   -3.616029    0.085557
 H      0.501050   -2.927295    0.072002
 C      3.823867   -3.222589    0.195644
 C      2.193164   -4.836169   -0.498934
 C      4.839015   -4.035529   -0.280129
 H      4.051163   -2.266465    0.645115
 C      3.206302   -5.656981   -0.973057
 H      1.159004   -5.151056   -0.588061
 C      4.530644   -5.257617   -0.865530
 H      5.873291   -3.715744   -0.193163
 H      2.959106   -6.610970   -1.430220
 H      5.324382   -5.898847   -1.238342
 C      1.200619   -2.930617    2.090493
 C      0.010691   -2.236443    2.614974
 H      1.082996   -4.000443    2.300341
 H      2.080655   -2.574894    2.628258
 C     -0.970741   -1.698883    3.052782
 H     -1.832498   -1.240000    3.471817
 Cl     2.944138    0.858701   -0.412496
 Cl     0.696746   -1.229946   -2.177124
 O      0.393335    1.211277   -1.303416
 O     -0.046531    0.018689    0.633456
 C     -1.004840    2.392893    0.050529
 C     -1.865646    1.223838   -0.053969
 C     -1.919506   -1.119580    0.064853
 C      1.034934    3.308864   -0.656417
 C      0.811275    4.495421    0.026289
 C     -1.294078    3.547319    0.736352
 C     -0.378213    4.592249    0.729991
 C     -3.185076    1.235030   -0.441579
 C     -3.867962    0.033536   -0.581280
 C     -3.243513   -1.180021   -0.336109
 H     -2.225683    3.619143    1.284595
 H     -0.613296    5.488375    1.288840
 H     -3.664500    2.181845   -0.658369
 H     -4.901271    0.062546   -0.901478
 C     -3.905232   -2.543356   -0.478510
 H     -1.307365   -1.967182    0.309208
 N      0.162137    2.308142   -0.616281
 N     -1.285591    0.039187    0.196612
 H      1.908461    3.090584   -1.245940
 C      1.875830    5.582510   -0.025413
 C      2.128331    5.955399   -1.492358
 C      1.441453    6.832864    0.738932
 C      3.157140    5.022395    0.608223
 H      1.221036    6.319344   -1.973771
 H      2.873628    6.746359   -1.555915
 H      2.502162    5.113089   -2.071282
 H      2.221649    7.589364    0.676273
 H      0.533580    7.270723    0.325889
 H      1.274709    6.630595    1.795971
 H      3.526537    4.147210    0.077062
 H      3.945565    5.772995    0.590422
 H      2.995648    4.738442    1.647543
 C     -3.100662   -3.366515   -1.493894
 C     -3.893432   -3.231653    0.893481
 C     -5.348386   -2.419421   -0.966420
 H     -2.076714   -3.533878   -1.166365
 H     -3.560119   -4.343463   -1.634235
 H     -3.064067   -2.875788   -2.465767
 H     -5.410317   -1.944907   -1.944880
 H     -5.789274   -3.410250   -1.060359
 H     -5.969730   -1.855877   -0.271651
 H     -2.883622   -3.369600    1.274559
 H     -4.453584   -2.657777    1.631125
 H     -4.353974   -4.215777    0.824625
