69

 Si    -0.538648    1.604812    1.379978
 O      0.632235    1.933205    0.330812
 C      1.870652    2.510795    0.166124
 C      2.636312    1.667990   -0.818738
 H      2.399189    2.550878    1.124895
 C      1.930328    0.863051   -1.696472
 C      4.021196    1.717049   -0.899333
 C      2.596168    0.097012   -2.639597
 H      0.854420    0.853589   -1.635335
 C      4.692384    0.958748   -1.846463
 H      4.579889    2.354303   -0.221644
 C      3.981577    0.143968   -2.717110
 H      2.032745   -0.525850   -3.328119
 H      5.776482    1.004217   -1.903874
 H      4.508117   -0.448999   -3.459802
 C      1.692732    3.917881   -0.365643
 C      0.931757    4.766012    0.564686
 H      2.669223    4.380395   -0.550311
 H      1.157897    3.865909   -1.316231
 C      0.310176    5.446970    1.333327
 H     -0.238049    6.053073    2.014328
 Cl     0.453202    2.079512    3.113414
 Cl    -2.240817    2.637540    1.704072
 O     -1.259764    0.950643   -0.172410
 O     -0.589872   -0.059838    1.797340
 C     -1.711343   -1.262367   -0.205852
 C     -0.279224   -1.432369    0.000297
 C      1.513934   -0.830672    1.406664
 C     -3.441943    0.316182   -0.328129
 C     -4.415814   -0.667780   -0.439886
 C     -2.623712   -2.282958   -0.330784
 C     -3.975149   -1.981250   -0.445549
 C      0.565826   -2.233104   -0.731211
 C      1.900287   -2.327895   -0.364388
 C      2.408119   -1.635592    0.726763
 H     -2.276816   -3.309211   -0.312445
 H     -4.681128   -2.796934   -0.526558
 H      0.176692   -2.779602   -1.581538
 H      2.548053   -2.968497   -0.947772
 C      3.833332   -1.807442    1.237050
 H      1.732385   -0.222808    2.269346
 N     -2.154882    0.009952   -0.213610
 N      0.238585   -0.761260    1.039112
 H     -3.628906    1.376237   -0.316706
 C     -5.875742   -0.247739   -0.537052
 C     -6.046259    0.648171   -1.771332
 C     -6.803136   -1.456008   -0.666077
 C     -6.236613    0.529123    0.736823
 H     -5.763552    0.126873   -2.685524
 H     -7.086518    0.952080   -1.875143
 H     -5.449856    1.556268   -1.704343
 H     -7.836150   -1.119338   -0.733633
 H     -6.595373   -2.038831   -1.562510
 H     -6.736815   -2.118025    0.196138
 H     -5.632982    1.427365    0.853256
 H     -7.279608    0.840026    0.706386
 H     -6.101463   -0.082516    1.628216
 C      4.783196   -2.160622    0.092008
 C      4.326499   -0.526410    1.913522
 C      3.805412   -2.953978    2.259801
 H      4.757503   -1.410642   -0.693536
 H      5.804779   -2.215982    0.463141
 H      4.556521   -3.128152   -0.350765
 H      3.466591   -3.886131    1.808698
 H      4.803149   -3.126313    2.660672
 H      3.148815   -2.728307    3.099479
 H      4.273370    0.324866    1.241114
 H      3.764775   -0.287046    2.813706
 H      5.365630   -0.644228    2.214256
