69

 Si    -0.662854   -1.949251   -0.276720
 O      0.951430   -1.981647   -0.361526
 C      1.955857   -2.608567    0.370716
 C      2.558386   -1.566670    1.275809
 H      1.507674   -3.390513    0.989787
 C      3.921625   -1.405350    1.463065
 C      1.684027   -0.734236    1.961919
 C      4.403425   -0.420501    2.315360
 H      4.624491   -2.052056    0.953899
 C      2.156018    0.258189    2.799860
 H      0.625218   -0.879086    1.849883
 C      3.524121    0.420452    2.978742
 H      5.475220   -0.311458    2.456033
 H      1.455283    0.895968    3.330268
 H      3.902448    1.193574    3.641577
 C      2.902695   -3.258625   -0.607028
 C      2.174887   -4.194716   -1.478044
 H      3.690240   -3.806505   -0.077249
 H      3.381326   -2.499527   -1.227917
 C      1.554331   -4.948032   -2.176672
 H      1.019758   -5.626782   -2.798053
 Cl    -0.969183   -3.462915    1.072881
 Cl    -1.987293   -2.566965   -1.671824
 O     -0.505410   -0.485108   -1.298508
 O     -1.265443   -0.820467    0.866468
 C     -0.372794    1.435559   -0.112803
 C     -1.807592    1.241029    0.047897
 C     -3.462708   -0.353327    0.557947
 C      1.531344    0.537296   -1.153368
 C      2.324058    1.600688   -0.755378
 C      0.365387    2.501528    0.344654
 C      1.711113    2.574222    0.022696
 C     -2.784024    2.151996   -0.277391
 C     -4.120719    1.780533   -0.189823
 C     -4.493481    0.509318    0.220324
 H     -0.116138    3.268609    0.939259
 H      2.281727    3.422785    0.376155
 H     -2.496555    3.135936   -0.627577
 H     -4.873920    2.505879   -0.468547
 C     -5.930397    0.013191    0.305106
 H     -3.579908   -1.368280    0.902891
 N      0.243870    0.482077   -0.830831
 N     -2.194049    0.027143    0.469421
 H      1.852270   -0.302944   -1.739019
 C      3.765142    1.736414   -1.229666
 C      4.326568    0.396771   -1.705066
 C      3.760262    2.731579   -2.400442
 C      4.649420    2.269678   -0.099612
 H      3.803287    0.012417   -2.578256
 H      5.369936    0.515442   -1.990604
 H      4.285488   -0.354773   -0.922064
 H      4.769751    2.867428   -2.785640
 H      3.139120    2.379826   -3.223736
 H      3.391321    3.709927   -2.095181
 H      4.608869    1.625909    0.774437
 H      5.685862    2.316680   -0.428745
 H      4.369240    3.275133    0.205854
 C     -6.083753   -1.167730   -0.663782
 C     -6.209049   -0.440390    1.744393
 C     -6.926371    1.108183   -0.075305
 H     -5.424481   -1.995273   -0.408837
 H     -7.104537   -1.545554   -0.637782
 H     -5.867404   -0.872171   -1.689800
 H     -6.788721    1.450826   -1.099933
 H     -7.941218    0.721601   -0.000563
 H     -6.861304    1.970827    0.586688
 H     -5.565238   -1.264185    2.047319
 H     -6.070515    0.374293    2.454786
 H     -7.237436   -0.785303    1.837200
