69

 Si    -0.362272   -1.708016   -1.333019
 O      1.254551   -1.720671   -1.176086
 C      2.027353   -2.469764   -0.282375
 C      1.555019   -2.134032    1.104060
 H      1.867805   -3.532645   -0.473276
 C      1.714724   -0.851010    1.595502
 C      0.845668   -3.055751    1.855997
 C      1.144213   -0.471708    2.795464
 H      2.295702   -0.142204    1.037115
 C      0.270803   -2.687476    3.061063
 H      0.723638   -4.067661    1.492217
 C      0.407335   -1.390137    3.528881
 H      1.286622    0.535831    3.171711
 H     -0.287987   -3.420512    3.635517
 H     -0.042791   -1.100342    4.474274
 C      3.478760   -2.138560   -0.525299
 C      3.835158   -2.266630   -1.946063
 H      4.117419   -2.800744    0.072480
 H      3.686918   -1.117902   -0.210042
 C      4.109410   -2.352244   -3.111740
 H      4.375183   -2.438301   -4.139097
 Cl    -1.571357   -1.669501   -2.961826
 Cl    -0.799976   -3.650455   -0.848069
 O     -0.927782   -1.120946    0.170765
 O     -0.175360    0.025831   -1.715149
 C     -1.508673    1.090201    0.199670
 C     -0.087020    1.389477    0.082955
 C      1.826711    0.986556   -1.222449
 C     -3.131439   -0.614018    0.135929
 C     -4.182620    0.287034    0.178605
 C     -2.508604    2.032916    0.268068
 C     -3.837315    1.628017    0.257778
 C      0.619277    2.284339    0.857128
 C      1.950825    2.519625    0.566887
 C      2.589073    1.877100   -0.490200
 H     -2.243858    3.082778    0.296964
 H     -4.606053    2.388807    0.293435
 H      0.123119    2.784000    1.680112
 H      2.500475    3.220842    1.181772
 C      4.052950    2.143860   -0.816607
 H      2.165793    0.402386   -2.058676
 N     -1.867882   -0.203147    0.153534
 N      0.546368    0.775662   -0.926314
 H     -3.225458   -1.686870    0.078680
 C     -5.610343   -0.238389    0.121669
 C     -5.827508   -1.195874    1.301156
 C     -6.630311    0.896809    0.204570
 C     -5.790961   -0.983553   -1.208479
 H     -5.669670   -0.695877    2.256491
 H     -6.847771   -1.575583    1.293865
 H     -5.163154   -2.057069    1.257956
 H     -7.637892    0.486816    0.164486
 H     -6.547193    1.456073    1.135656
 H     -6.534920    1.595567   -0.625365
 H     -5.117381   -1.833911   -1.296425
 H     -6.807548   -1.364457   -1.291309
 H     -5.613999   -0.327388   -2.059968
 C      4.904725    1.672888    0.369033
 C      4.494677    1.409198   -2.083069
 C      4.238737    3.651978   -1.031671
 H      4.785789    0.605944    0.548866
 H      5.959748    1.855435    0.171839
 H      4.649461    2.198306    1.287656
 H      3.997586    4.226639   -0.139497
 H      5.274537    3.870065   -1.286431
 H      3.616005    4.018245   -1.847230
 H      4.407379    0.329475   -1.992148
 H      3.924892    1.724089   -2.955944
 H      5.540692    1.630564   -2.285983
