69

 Si     0.552108    1.786839   -0.521762
 O     -1.046696    1.796383   -0.721907
 C     -2.283068    2.264005   -0.315408
 C     -2.727254    1.534670    0.925618
 H     -2.972274    2.007476   -1.131609
 C     -1.800584    0.935981    1.759887
 C     -4.077891    1.446812    1.242074
 C     -2.207814    0.239298    2.886154
 H     -0.753371    1.025032    1.544254
 C     -4.491593    0.764590    2.374877
 H     -4.814276    1.917016    0.599158
 C     -3.556401    0.150693    3.198073
 H     -1.465014   -0.223351    3.529397
 H     -5.550252    0.706302    2.612125
 H     -3.879724   -0.389119    4.083591
 C     -2.321470    3.767198   -0.151828
 C     -1.867855    4.435733   -1.381368
 H     -3.350704    4.074864    0.067061
 H     -1.689983    4.076188    0.679165
 C     -1.488768    4.953035   -2.396100
 H     -1.157399    5.432107   -3.286450
 Cl     1.898713    2.377005   -1.903474
 Cl     0.760676    3.355422    0.779871
 O      1.174376    0.747856    0.698632
 O      0.480041    0.248227   -1.445075
 C      1.862253   -1.314276    0.006156
 C      0.441068   -1.595409   -0.139075
 C     -1.516907   -0.836789   -1.190172
 C      3.404219    0.408197    0.449122
 C      4.491866   -0.404091    0.168970
 C      2.897053   -2.177503   -0.260029
 C      4.206222   -1.715993   -0.177670
 C     -0.245863   -2.652583    0.410135
 C     -1.597894   -2.784425    0.140817
 C     -2.265442   -1.882370   -0.678729
 H      2.677432   -3.195473   -0.558505
 H      5.008080   -2.405368   -0.407552
 H      0.277919   -3.358517    1.043502
 H     -2.134584   -3.618148    0.574680
 C     -3.736297   -2.066093   -1.025999
 H     -1.879875   -0.053003   -1.826288
 N      2.164585   -0.057553    0.365754
 N     -0.223381   -0.717050   -0.908337
 H      3.450911    1.445430    0.740235
 C      5.893267    0.186492    0.243585
 C      6.123363    0.725397    1.661921
 C      6.961537   -0.859529   -0.073298
 C      5.983987    1.326987   -0.780079
 H      6.028115   -0.062039    2.409200
 H      7.126170    1.140260    1.748084
 H      5.423594    1.518984    1.917653
 H      7.948611   -0.405088   -0.009312
 H      6.943735   -1.690684    0.630591
 H      6.857420   -1.260362   -1.080595
 H      5.270427    2.121891   -0.572135
 H      6.978509    1.769719   -0.762741
 H      5.799496    0.969055   -1.792330
 C     -4.539791   -2.230182    0.268262
 C     -4.287719   -0.872936   -1.805381
 C     -3.858703   -3.330896   -1.888127
 H     -4.418013   -1.370834    0.921594
 H     -5.600119   -2.327739    0.042255
 H     -4.247440   -3.119546    0.822185
 H     -3.510570   -4.216652   -1.359135
 H     -4.898531   -3.502243   -2.162211
 H     -3.285707   -3.243236   -2.810857
 H     -4.204682    0.051924   -1.240927
 H     -3.788312   -0.737549   -2.763235
 H     -5.343531   -1.030439   -2.016937
