69

 Si     0.157391    0.888907    2.130690
 O      1.018981    1.798589    1.097478
 C      0.650120    2.883374    0.304178
 C     -0.244222    2.369221   -0.782433
 H      0.092373    3.594076    0.921058
 C      0.253111    1.469084   -1.706657
 C     -1.602076    2.635035   -0.754644
 C     -0.597264    0.806511   -2.570614
 H      1.313012    1.273098   -1.736805
 C     -2.461061    1.976185   -1.617095
 H     -1.998655    3.340646   -0.034518
 C     -1.961957    1.050195   -2.519093
 H     -0.198341    0.105914   -3.297059
 H     -3.525932    2.187625   -1.584840
 H     -2.634227    0.532728   -3.197809
 C      1.904191    3.555426   -0.197491
 C      2.779174    3.963810    0.911959
 H      1.641455    4.437362   -0.795310
 H      2.453068    2.869775   -0.842180
 C      3.488560    4.280876    1.826906
 H      4.120633    4.579559    2.629388
 Cl    -1.565608    1.507649    2.985397
 Cl     1.381939    1.092584    3.750810
 O     -0.786168    0.453979    0.660971
 O      0.651282   -0.748317    1.933277
 C     -0.785354   -1.674039   -0.054317
 C      0.639505   -1.456530   -0.245104
 C      2.570089   -0.540850    0.743420
 C     -2.759811   -0.655281    0.701932
 C     -3.520413   -1.783295    0.426649
 C     -1.483143   -2.818140   -0.359548
 C     -2.850184   -2.868046   -0.116366
 C      1.353683   -1.725337   -1.387339
 C      2.697588   -1.380275   -1.450628
 C      3.338276   -0.764263   -0.386207
 H     -0.952791   -3.669582   -0.769020
 H     -3.383236   -3.779239   -0.353018
 H      0.851239   -2.178942   -2.232362
 H      3.239547   -1.593857   -2.362922
 C      4.799583   -0.334318   -0.385601
 H      2.909336   -0.084010    1.658098
 N     -1.454918   -0.626318    0.462893
 N      1.292969   -0.897127    0.784676
 H     -3.132630    0.261828    1.123006
 C     -5.010639   -1.756696    0.735849
 C     -5.654340   -0.623750   -0.074856
 C     -5.686587   -3.078317    0.371167
 C     -5.187508   -1.500348    2.238970
 H     -5.512776   -0.768451   -1.145514
 H     -6.726238   -0.587688    0.112588
 H     -5.247181    0.350491    0.189106
 H     -6.748046   -3.024125    0.606601
 H     -5.603697   -3.302249   -0.691537
 H     -5.275627   -3.917078    0.931261
 H     -4.763885   -0.545322    2.544219
 H     -6.245171   -1.483547    2.496766
 H     -4.716120   -2.281574    2.834354
 C      5.517019   -0.783053   -1.658609
 C      4.846178    1.195680   -0.288986
 C      5.497937   -0.961718    0.828177
 H      5.083749   -0.339443   -2.553906
 H      6.559320   -0.471631   -1.619792
 H      5.507647   -1.866294   -1.773659
 H      5.432338   -2.049218    0.810256
 H      6.553926   -0.697298    0.830687
 H      5.077550   -0.613241    1.769399
 H      4.382022    1.661096   -1.156587
 H      4.342568    1.568570    0.599510
 H      5.878453    1.538937   -0.249267
