69

 Si    -0.581057   -1.575618   -1.397694
 O      0.612736   -1.936845   -0.386133
 C      1.856460   -2.514268   -0.268463
 C      2.647188   -1.692260    0.714437
 H      2.358970   -2.530400   -1.241825
 C      1.964429   -0.903754    1.624795
 C      4.033565   -1.745109    0.760466
 C      2.654575   -0.157481    2.566359
 H      0.887417   -0.891494    1.590204
 C      4.729097   -1.006624    1.705627
 H      4.574364   -2.369704    0.056975
 C      4.041307   -0.208039    2.609205
 H      2.109266    0.452423    3.280583
 H      5.814186   -1.054765    1.735625
 H      4.586963    0.369263    3.350442
 C      1.695731   -3.933710    0.234968
 C      0.909092   -4.760896   -0.692920
 H      2.677657   -4.398729    0.380391
 H      1.188441   -3.905260    1.201520
 C      0.265855   -5.424283   -1.459118
 H     -0.301267   -6.015051   -2.138129
 Cl     0.362628   -2.017364   -3.166384
 Cl    -2.296517   -2.593258   -1.699377
 O     -1.257598   -0.950572    0.186210
 O     -0.635230    0.097727   -1.778636
 C     -1.700077    1.262530    0.277761
 C     -0.273308    1.432367    0.037378
 C      1.480449    0.854566   -1.427538
 C     -3.432626   -0.312852    0.412703
 C     -4.399646    0.671602    0.570687
 C     -2.605068    2.283052    0.448136
 C     -3.954157    1.983200    0.592367
 C      0.593207    2.216259    0.762059
 C      1.917757    2.315277    0.362002
 C      2.394662    1.643493   -0.755633
 H     -2.255173    3.308431    0.441676
 H     -4.654663    2.799295    0.708967
 H      0.228417    2.746635    1.633139
 H      2.582418    2.942617    0.940794
 C      3.806496    1.821937   -1.299729
 H      1.673985    0.263841   -2.307930
 N     -2.147971   -0.008312    0.270552
 N      0.214959    0.780850   -1.027866
 H     -3.623572   -1.371873    0.384365
 C     -5.858073    0.254158    0.697419
 C     -5.999151   -0.667985    1.916023
 C     -6.777165    1.462315    0.877301
 C     -6.255431   -0.493442   -0.583148
 H     -5.690308   -0.167615    2.833439
 H     -7.037448   -0.970728    2.040725
 H     -5.408142   -1.576267    1.813357
 H     -7.809254    1.127477    0.964977
 H     -6.543307    2.024550    1.780424
 H     -6.731075    2.142756    0.028225
 H     -5.658213   -1.390660   -0.735022
 H     -7.298429   -0.801514   -0.531793
 H     -6.141438    0.137391   -1.464059
 C      4.786914    2.149540   -0.172987
 C      4.277662    0.553506   -2.014574
 C      3.755389    2.988917   -2.298203
 H      4.779137    1.384051    0.597837
 H      5.798698    2.209560   -0.569375
 H      4.574870    3.108568    0.294837
 H      3.431345    3.912576   -1.819631
 H      4.742807    3.166646   -2.721623
 H      3.076245    2.781797   -3.124626
 H      4.239345   -0.310968   -1.358167
 H      3.691749    0.333924   -2.904332
 H      5.308929    0.674603   -2.340046
