69

 Si     0.759897   -1.733905    0.879741
 O     -0.841008   -1.746299    1.107150
 C     -1.875058   -2.595062    0.722246
 C     -2.583492   -1.932889   -0.429880
 H     -1.448332   -3.539045    0.372446
 C     -1.795576   -1.390143   -1.436288
 C     -3.961844   -1.844871   -0.538131
 C     -2.366318   -0.748614   -2.519071
 H     -0.727113   -1.487298   -1.375608
 C     -4.543354   -1.216780   -1.631660
 H     -4.599201   -2.274085    0.224084
 C     -3.748937   -0.658040   -2.620135
 H     -1.732525   -0.334460   -3.297444
 H     -5.625980   -1.162739   -1.705046
 H     -4.204974   -0.161751   -3.472139
 C     -2.719256   -2.876366    1.940144
 C     -1.893300   -3.449790    3.014104
 H     -3.525421   -3.578480    1.698937
 H     -3.175222   -1.953384    2.302206
 C     -1.195176   -3.912523    3.873848
 H     -0.591485   -4.332445    4.643083
 Cl     2.208057   -1.807158    2.286566
 Cl     1.017866   -3.623809    0.127532
 O      1.227615   -1.074088   -0.633263
 O      0.625746   -0.003785    1.333289
 C      1.740432    1.151096   -0.644490
 C      0.316209    1.372256   -0.433930
 C     -1.455846    0.883577    1.027790
 C      3.419482   -0.498003   -0.701586
 C      4.434618    0.441872   -0.783319
 C      2.698555    2.130936   -0.750295
 C      4.039358    1.770650   -0.819698
 C     -0.500230    2.202791   -1.164619
 C     -1.815378    2.375283   -0.763818
 C     -2.320811    1.734031    0.359540
 H      2.396743    3.171270   -0.746718
 H      4.778793    2.557977   -0.886534
 H     -0.102052    2.713920   -2.032978
 H     -2.446443    3.042215   -1.336056
 C     -3.718621    2.021171    0.892552
 H     -1.692032    0.300844    1.897639
 N      2.145980   -0.128040   -0.642129
 N     -0.198725    0.729156    0.627583
 H      3.553600   -1.567660   -0.674251
 C      5.881003   -0.032885   -0.814268
 C      6.067331   -0.957454   -2.024790
 C      6.854688    1.139738   -0.925970
 C      6.159246   -0.797783    0.487345
 H      5.841086   -0.443989   -2.958983
 H      7.099011   -1.300587   -2.080456
 H      5.436670   -1.842758   -1.966146
 H      7.876921    0.766059   -0.945406
 H      6.704583    1.712689   -1.840192
 H      6.777969    1.819542   -0.078505
 H      5.520178   -1.672254    0.593578
 H      7.190970   -1.145071    0.506334
 H      6.008103   -0.165154    1.361306
 C     -4.718279    2.128793   -0.261669
 C     -4.187885    0.927137    1.851149
 C     -3.644664    3.359737    1.643551
 H     -4.732932    1.222532   -0.860475
 H     -5.722120    2.285685    0.128645
 H     -4.500775    2.966556   -0.920182
 H     -3.339228    4.173218    0.986691
 H     -4.619902    3.618027    2.053561
 H     -2.940452    3.315879    2.473911
 H     -4.187371   -0.049061    1.374981
 H     -3.577094    0.870953    2.749872
 H     -5.206299    1.132917    2.174724
