69

 Si     0.200956   -0.955729    2.095861
 O     -0.114713   -2.111785    0.999595
 C      0.736009   -2.871967    0.199380
 C      1.329149   -1.959221   -0.830106
 H      1.537206   -3.276104    0.825007
 C      0.504132   -1.346419   -1.755042
 C      2.656011   -1.575745   -0.742933
 C      0.983170   -0.331631   -2.560826
 H     -0.526037   -1.655570   -1.831535
 C      3.144236   -0.560054   -1.546534
 H      3.308621   -2.052470   -0.021424
 C      2.305136    0.073764   -2.448961
 H      0.330995    0.139625   -3.289036
 H      4.185813   -0.262347   -1.467824
 H      2.686503    0.870462   -3.081576
 C     -0.053600   -4.020438   -0.378508
 C     -0.673164   -4.835495    0.677375
 H      0.602520   -4.654930   -0.987810
 H     -0.837455   -3.633859   -1.028968
 C     -1.181694   -5.484501    1.549766
 H     -1.627188   -6.076184    2.314030
 Cl     1.986951   -0.753820    3.018563
 Cl    -0.844650   -1.769751    3.648355
 O      0.886479   -0.073252    0.685060
 O     -0.982633    0.281356    1.915455
 C     -0.067937    1.847630    0.022689
 C     -1.226285    1.010050   -0.242902
 C     -2.552304   -0.728895    0.628555
 C      2.127882    1.813455    0.850574
 C      2.293298    3.175820    0.641911
 C      0.034971    3.196834   -0.217854
 C      1.217278    3.856492    0.094628
 C     -1.947196    0.972192   -1.411473
 C     -2.979592    0.053066   -1.548757
 C     -3.299587   -0.833739   -0.531998
 H     -0.813997    3.728279   -0.631059
 H      1.278602    4.920652   -0.090316
 H     -1.682284    1.642112   -2.219744
 H     -3.528658    0.033904   -2.481389
 C     -4.403044   -1.880893   -0.609426
 H     -2.674684   -1.329136    1.514682
 N      0.990812    1.200908    0.546736
 N     -1.583490    0.170053    0.740589
 H      2.867212    1.151436    1.265906
 C      3.618078    3.820876    1.023952
 C      4.735749    3.149597    0.214304
 C      3.620879    5.321011    0.730354
 C      3.846518    3.602747    2.526036
 H      4.577294    3.265704   -0.857453
 H      5.697823    3.599046    0.454716
 H      4.813501    2.085398    0.428947
 H      4.580506    5.748408    1.015876
 H      3.477089    5.532361   -0.328424
 H      2.853097    5.850326    1.292900
 H      3.903050    2.546550    2.782912
 H      4.783539    4.062588    2.835776
 H      3.049253    4.049371    3.119279
 C     -5.175564   -1.786426   -1.924976
 C     -3.757340   -3.267774   -0.500142
 C     -5.373376   -1.655877    0.557965
 H     -4.537665   -1.960684   -2.790362
 H     -5.956516   -2.544483   -1.945184
 H     -5.661804   -0.819216   -2.046294
 H     -5.809013   -0.657524    0.529815
 H     -6.191612   -2.372242    0.508894
 H     -4.889448   -1.786057    1.523991
 H     -3.089984   -3.460443   -1.337971
 H     -3.184449   -3.386312    0.416193
 H     -4.523356   -4.041100   -0.509819
