57

 Si     0.337727   -2.228852    0.265690
 O     -1.042483   -1.839793    1.019849
 C     -2.382569   -2.059454    0.720617
 C     -2.701264   -1.451764   -0.614546
 H     -2.577382   -3.134761    0.695587
 C     -2.212754   -0.189949   -0.905867
 C     -3.450473   -2.125921   -1.564260
 C     -2.439016    0.391312   -2.138531
 H     -1.645436    0.331987   -0.161908
 C     -3.693544   -1.545544   -2.800735
 H     -3.838328   -3.114436   -1.345734
 C     -3.183146   -0.289772   -3.093414
 H     -2.044184    1.378564   -2.356574
 H     -4.280717   -2.081874   -3.540677
 H     -3.369842    0.161031   -4.063941
 C     -3.211512   -1.426222    1.818142
 C     -2.726028   -1.784024    3.159762
 H     -4.259862   -1.732418    1.717420
 H     -3.183725   -0.341301    1.719701
 C     -2.295421   -2.052312    4.248337
 H     -1.941220   -2.296188    5.222480
 Cl     1.908328   -3.340695    0.897141
 Cl    -0.370097   -3.595941   -1.083636
 O      0.615938   -1.079981   -0.974119
 O      1.069086   -0.970096    1.322853
 C      2.052173    0.586685   -0.384420
 C      0.920074    1.079864    0.390541
 C     -0.473157    0.465244    2.185218
 C      2.746394   -1.219948   -1.737369
 C      4.033415   -0.716897   -1.828269
 C      3.323077    1.134774   -0.410325
 C      4.295881    0.463082   -1.148781
 C      0.298318    2.306855    0.272610
 C     -0.726869    2.591498    1.175879
 C     -1.115996    1.695376    2.156486
 H      5.299255    0.872965   -1.175407
 H     -1.232300    3.547806    1.101263
 H     -0.709255   -0.346756    2.850868
 N      1.828160   -0.566908   -1.032980
 N      0.481399    0.196986    1.309365
 H      2.388263   -2.137533   -2.181086
 C      3.665906    2.386784    0.347262
 H      3.636597    3.253786   -0.316788
 H      2.976480    2.555455    1.168878
 H      4.674904    2.307971    0.751208
 C      0.679701    3.296674   -0.792402
 H     -0.221409    3.694856   -1.260370
 H      1.227834    4.135158   -0.356808
 H      1.294123    2.839133   -1.561686
 C      5.091270   -1.443449   -2.617119
 H      5.946841   -1.670124   -1.977171
 H      4.700685   -2.374430   -3.024920
 H      5.440783   -0.816782   -3.441581
 C     -2.199550    2.008953    3.153887
 H     -2.490501    1.114823    3.701418
 H     -1.839682    2.754200    3.868998
 H     -3.074892    2.422303    2.649964
