57

 Si     0.402091   -2.293425   -0.212515
 O      1.768244   -1.532978   -0.604731
 C      2.992320   -1.023778   -0.200633
 C      2.753706    0.179671    0.671797
 H      3.491678   -0.695668   -1.121083
 C      1.762585    0.142853    1.637065
 C      3.490836    1.342852    0.502983
 C      1.475406    1.260880    2.398216
 H      1.213830   -0.767790    1.793437
 C      3.218014    2.465035    1.271078
 H      4.283322    1.377034   -0.236371
 C      2.200223    2.430860    2.213269
 H      0.690137    1.213339    3.146499
 H      3.801004    3.370795    1.129260
 H      1.982105    3.310535    2.812425
 C      3.881044   -2.054909    0.454778
 C      4.097431   -3.202645   -0.439763
 H      4.848659   -1.592783    0.686844
 H      3.436472   -2.401152    1.386010
 C      4.257361   -4.126844   -1.188904
 H      4.413608   -4.955008   -1.838567
 Cl    -0.452481   -3.789164   -1.264679
 Cl     1.066691   -3.415604    1.369704
 O     -0.622673   -1.442281    0.870293
 O     -0.362884   -1.208059   -1.431794
 C     -2.206327   -0.135319   -0.102998
 C     -1.070240    0.705637   -0.455369
 C      0.861185    0.679260   -1.793836
 C     -2.751569   -2.222666    0.856129
 C     -4.090041   -2.071089    0.535574
 C     -3.524016    0.075729   -0.472759
 C     -4.449090   -0.909183   -0.131891
 C     -0.869649    2.026473   -0.117127
 C      0.230450    2.671565   -0.685762
 C      1.086433    2.030511   -1.559592
 H     -5.485222   -0.766406   -0.417242
 H      0.403779    3.712006   -0.439013
 H      1.475812    0.038593   -2.400654
 N     -1.882732   -1.271988    0.528933
 N     -0.164469    0.068958   -1.227326
 H     -2.307826   -3.071691    1.355200
 C     -3.949948    1.299164   -1.234729
 H     -4.319792    2.064783   -0.548743
 H     -3.126637    1.716419   -1.806946
 H     -4.757182    1.045012   -1.920834
 C     -1.775576    2.754564    0.834441
 H     -1.173259    3.243516    1.601271
 H     -2.342789    3.527296    0.310851
 H     -2.470826    2.078797    1.322316
 C     -5.089996   -3.145132    0.875930
 H     -5.427754   -3.639442   -0.039057
 H     -4.647922   -3.893928    1.531501
 H     -5.961765   -2.710256    1.368435
 C      2.216624    2.739638   -2.253508
 H      2.605177    3.546430   -1.634735
 H      3.022801    2.048157   -2.491819
 H      1.853636    3.172827   -3.191258
