57

 Si    -0.845662    0.142032    1.143950
 O     -1.831333   -1.046391    0.580442
 C     -2.658039   -1.033876   -0.527918
 C     -4.079587   -0.827534   -0.090387
 H     -2.374338   -0.222410   -1.202384
 C     -4.495716   -1.363073    1.117302
 C     -4.978463   -0.117840   -0.873091
 C     -5.799445   -1.187419    1.549992
 H     -3.785221   -1.907050    1.723117
 C     -6.286825    0.057387   -0.446950
 H     -4.658040    0.302853   -1.820154
 C     -6.698972   -0.475275    0.766304
 H     -6.114993   -1.607991    2.500351
 H     -6.986114    0.613531   -1.064899
 H     -7.722734   -0.336097    1.102067
 C     -2.500161   -2.347319   -1.264394
 C     -1.210730   -2.454448   -1.972007
 H     -3.293869   -2.464768   -2.010838
 H     -2.590521   -3.164255   -0.546068
 C     -0.166368   -2.529067   -2.562150
 H      0.741445   -2.617026   -3.108018
 Cl    -2.040962    1.753211    0.998396
 Cl    -0.587865   -0.801871    2.920601
 O      0.582104    1.092302    1.653763
 O      0.117044   -0.085814   -0.275205
 C      2.126236    1.390515    0.006826
 C      2.329418   -0.039903    0.194221
 C      1.111693   -2.061772    0.247785
 C      0.839267    3.192785    0.804072
 C      1.456271    4.075027   -0.077081
 C      2.756607    2.198854   -0.915705
 C      2.402531    3.551154   -0.936015
 C      3.485119   -0.681853    0.584499
 C      3.416713   -2.067213    0.770722
 C      2.244476   -2.781020    0.609888
 H      2.885221    4.200175   -1.657176
 H      4.315325   -2.587972    1.080846
 H      0.116559   -2.454865    0.128262
 N      1.171488    1.910805    0.809453
 N      1.200319   -0.758930    0.041708
 H      0.065203    3.455175    1.508758
 C      3.769848    1.662563   -1.887561
 H      4.778858    1.950889   -1.583555
 H      3.723156    0.580468   -1.958389
 H      3.587172    2.083463   -2.876791
 C      4.766868    0.059901    0.839126
 H      5.236900   -0.320238    1.746589
 H      5.464814   -0.091599    0.012117
 H      4.594176    1.124806    0.958738
 C      1.066859    5.529920   -0.069504
 H      1.525674    6.057552   -0.903889
 H     -0.018227    5.631826   -0.137602
 H      1.392330    5.998769    0.863361
 C      2.140107   -4.265538    0.835063
 H      1.407413   -4.473163    1.618661
 H      1.805281   -4.760791   -0.079787
 H      3.101687   -4.681586    1.130537
