57

 Si    -0.610406   -2.426255   -0.348057
 O      1.012751   -1.523018    0.234642
 C      2.131071   -1.942625    0.463542
 C      3.210952   -1.090531    0.953871
 H      2.370672   -2.996940    0.291820
 C      2.907129    0.169949    1.465900
 C      4.530403   -1.532516    0.908508
 C      3.917277    0.992878    1.915475
 H      1.871895    0.473477    1.518571
 C      5.547857   -0.700551    1.349835
 H      4.758581   -2.521542    0.522552
 C      5.240294    0.556638    1.850382
 H      3.687495    1.971916    2.324808
 H      6.580371   -1.034826    1.308909
 H      6.038651    1.205528    2.202634
 C      2.193235   -2.129238   -3.214535
 C      1.293609   -2.714084   -2.463406
 H      1.921031   -1.697912   -4.174747
 H      3.243167   -2.122352   -2.930650
 C      0.405555   -3.263648   -1.683898
 H      0.221825   -4.326928   -1.832654
 Cl    -2.484518   -3.037172   -1.011389
 Cl    -0.331014   -3.859035    1.145686
 O     -1.165609   -1.294949    0.910978
 O     -0.800712   -0.940882   -1.377763
 C     -2.321872    0.490686    0.134746
 C     -1.005595    0.997823   -0.229234
 C      0.897816    0.547134   -1.531688
 C     -3.402708   -1.289307    1.234978
 C     -4.650617   -0.705090    1.046933
 C     -3.528395    1.106453   -0.127112
 C     -4.687658    0.482772    0.345369
 C     -0.462291    2.197504    0.202170
 C      0.789381    2.554544   -0.290397
 C      1.483749    1.750226   -1.179552
 H     -5.642888    0.953639    0.144970
 H      1.229540    3.489443    0.036363
 H      1.330088   -0.196486   -2.181937
 N     -2.314686   -0.700065    0.765158
 N     -0.288030    0.201503   -1.041133
 H     -3.217200   -2.235552    1.719553
 C     -3.626577    2.382289   -0.914809
 H     -3.907700    3.214149   -0.265203
 H     -2.690902    2.623449   -1.407858
 H     -4.400233    2.278518   -1.676811
 C     -1.179976    3.086270    1.179685
 H     -0.462268    3.531712    1.868512
 H     -1.688816    3.898658    0.656715
 H     -1.914911    2.532747    1.756137
 C     -5.882636   -1.399243    1.562941
 H     -6.010664   -2.355426    1.048891
 H     -5.784304   -1.601860    2.631895
 H     -6.769251   -0.789382    1.398202
 C      2.844053    2.116430   -1.710634
 H      3.609474    1.847855   -0.977907
 H      3.054113    1.583822   -2.637413
 H      2.910405    3.189405   -1.892543
