57

 Si     1.038109    0.739066   -0.608762
 O      2.226814    0.133515    0.339854
 C      2.776468   -1.113361    0.525281
 C      4.194306   -1.114616    0.030160
 H      2.216749   -1.863247   -0.039619
 C      4.954585    0.034759    0.172468
 C      4.754333   -2.239295   -0.558123
 C      6.264537    0.069118   -0.275347
 H      4.506011    0.907534    0.624932
 C      6.067840   -2.212289   -1.004226
 H      4.165255   -3.142944   -0.672324
 C      6.824682   -1.057890   -0.864733
 H      6.850448    0.976705   -0.163357
 H      6.500035   -3.096282   -1.464624
 H      7.852556   -1.035288   -1.215655
 C      2.715386   -1.460101    1.998554
 C      1.342404   -1.673666    2.490640
 H      3.289610   -2.372120    2.200945
 H      3.167354   -0.642793    2.562415
 C      0.229917   -1.876140    2.897273
 H     -0.738209   -2.067013    3.291061
 Cl     1.749644    2.628994   -0.440223
 Cl     1.331583   -0.362784   -2.278687
 O     -0.447380    1.344470   -1.425803
 O     -0.103257    0.101548    0.513264
 C     -2.269842    1.364308   -0.073196
 C     -2.224988   -0.073632   -0.300145
 C     -0.806622   -1.947635   -0.150025
 C     -1.243214    3.374814   -0.734296
 C     -2.139087    4.124390    0.014185
 C     -3.171101    2.041101    0.726055
 C     -3.082288    3.432362    0.754701
 C     -3.227346   -0.837936   -0.873104
 C     -2.976142   -2.196541   -1.050280
 C     -1.773240   -2.781297   -0.685262
 H     -3.776425    3.984579    1.378008
 H     -3.745996   -2.811157   -1.503051
 H      0.176878   -2.246517    0.167467
 N     -1.313697    2.047927   -0.732346
 N     -1.055198   -0.652766    0.012950
 H     -0.438308    3.774842   -1.329890
 C     -4.196567    1.324729    1.559696
 H     -5.198505    1.486236    1.156161
 H     -4.004631    0.257679    1.603144
 H     -4.178780    1.720131    2.576297
 C     -4.530575   -0.238556   -1.322694
 H     -4.823931   -0.675062   -2.277542
 H     -5.320007   -0.454355   -0.599189
 H     -4.455365    0.837245   -1.444384
 C     -2.049213    5.628096    0.031533
 H     -1.805759    5.975879    1.038598
 H     -1.280020    5.979343   -0.654292
 H     -3.007251    6.067335   -0.255471
 C     -1.499590   -4.249656   -0.878191
 H     -1.580684   -4.509700   -1.936292
 H     -0.501306   -4.507557   -0.528639
 H     -2.230979   -4.844507   -0.325870
