57

 Si    -0.333952   -2.194649    0.450857
 O     -1.711628   -1.404343    0.769614
 C     -2.940749   -1.335507    0.123446
 C     -2.740964   -0.828618   -1.275474
 H     -3.393211   -2.330236    0.096689
 C     -1.879177    0.234528   -1.482462
 C     -3.380437   -1.405690   -2.359850
 C     -1.628916    0.707213   -2.756276
 H     -1.397314    0.684884   -0.638175
 C     -3.144811   -0.930372   -3.641796
 H     -4.057635   -2.238662   -2.208367
 C     -2.264231    0.121722   -3.843925
 H     -0.945479    1.537182   -2.905329
 H     -3.649166   -1.389780   -4.487085
 H     -2.077078    0.489484   -4.848770
 C     -3.829403   -0.401882    0.917957
 C     -3.811313   -0.706369    2.356990
 H     -4.859785   -0.461415    0.546925
 H     -3.497768    0.626940    0.779683
 C     -3.755879   -0.942073    3.533330
 H     -3.736332   -1.149162    4.577648
 Cl     0.669133   -3.570232    1.547650
 Cl    -0.998422   -3.497981   -0.981510
 O      0.548369   -1.297180   -0.711580
 O      0.400757   -1.033450    1.611788
 C      2.167931    0.031857    0.181571
 C      1.043721    0.869239    0.582056
 C     -0.882095    0.819474    1.934545
 C      2.689451   -2.033135   -0.838408
 C      4.041392   -1.867362   -0.587887
 C      3.499763    0.252757    0.487119
 C      4.419157   -0.713431    0.081783
 C      0.817849    2.186433    0.235423
 C     -0.296357    2.811336    0.797295
 C     -1.150194    2.154939    1.667009
 H      5.466316   -0.561845    0.318367
 H     -0.496025    3.845127    0.538404
 H     -1.487710    0.171062    2.543603
 N      1.825043   -1.101319   -0.451028
 N      0.164006    0.230501    1.378401
 H      2.230396   -2.884190   -1.320187
 C      3.951363    1.466006    1.250711
 H      4.335959    2.225432    0.565940
 H      3.139754    1.897572    1.828315
 H      4.756081    1.192729    1.932951
 C      1.711842    2.926450   -0.719838
 H      1.103113    3.457275   -1.452953
 H      2.311354    3.667122   -0.185735
 H      2.378444    2.252173   -1.248335
 C      5.037769   -2.915833   -1.008902
 H      5.560519   -3.307243   -0.132970
 H      4.541905   -3.740555   -1.518316
 H      5.781063   -2.480342   -1.680966
 C     -2.340230    2.831718    2.293978
 H     -2.943334    3.325532    1.529617
 H     -2.958750    2.111290    2.825190
 H     -2.004103    3.594877    3.001271
