57

 Si     0.998609   -0.448809   -1.316623
 O      1.546434    0.357904   -0.021731
 C      2.827600    0.691637    0.416264
 C      3.745603   -0.474113    0.198708
 H      3.189372    1.556753   -0.147772
 C      3.382397   -1.714215    0.703262
 C      4.926436   -0.344186   -0.513342
 C      4.188963   -2.818402    0.500182
 H      2.455057   -1.813004    1.248908
 C      5.741132   -1.448346   -0.719062
 H      5.211518    0.620180   -0.918442
 C      5.374203   -2.685838   -0.213203
 H      3.894641   -3.784513    0.898451
 H      6.664600   -1.339375   -1.280396
 H      6.011888   -3.550379   -0.374410
 C      2.729124    1.032883    1.885132
 C      1.905327    2.218913    2.177120
 H      3.730682    1.215931    2.294020
 H      2.300303    0.179531    2.411165
 C      1.260587    3.189253    2.470946
 H      0.722644    4.058035    2.760007
 Cl     2.145446    0.498248   -2.733605
 Cl     1.331598   -2.341528   -1.930173
 O     -0.127336   -1.090971   -0.034375
 O     -0.438276    0.290773   -1.890200
 C     -2.289363   -0.543636   -0.357330
 C     -1.795509    0.809139   -0.134092
 C     -0.272975    2.383262   -1.018129
 C     -1.580653   -2.782641   -0.509204
 C     -2.868465   -3.211064   -0.804107
 C     -3.588657   -0.892169   -0.678744
 C     -3.855072   -2.244275   -0.893732
 C     -2.197862    1.697621    0.839107
 C     -1.625462    2.973772    0.821250
 C     -0.673855    3.349771   -0.106144
 H     -4.865507   -2.540166   -1.151168
 H     -1.946923    3.687290    1.570639
 H      0.489941    2.499020   -1.773894
 N     -1.332847   -1.492796   -0.313396
 N     -0.833709    1.186780   -0.996782
 H     -0.710215   -3.415076   -0.438315
 C     -4.678830    0.132520   -0.819894
 H     -5.299502    0.154557    0.078842
 H     -4.274706    1.126074   -0.986991
 H     -5.319966   -0.127340   -1.662311
 C     -3.200758    1.328414    1.895617
 H     -2.830047    1.641512    2.872549
 H     -4.150151    1.838581    1.717652
 H     -3.377041    0.257926    1.920727
 C     -3.153878   -4.674224   -1.020381
 H     -3.783915   -4.813197   -1.900288
 H     -2.229865   -5.235256   -1.152646
 H     -3.686063   -5.080387   -0.155153
 C     -0.063585    4.724234   -0.162210
 H     -0.461718    5.357394    0.628031
 H      1.020105    4.658218   -0.053203
 H     -0.281497    5.189776   -1.127128
