57

 Si    -0.124900    2.310485    1.201582
 O      1.343278    1.971901    0.603652
 C      1.796526    1.979927   -0.712688
 C      2.129847    0.575102   -1.111388
 H      1.005908    2.344917   -1.364823
 C      3.196283   -0.085208   -0.522024
 C      1.362604   -0.085141   -2.058368
 C      3.508664   -1.384606   -0.885964
 H      3.794581    0.426972    0.219168
 C      1.671787   -1.384161   -2.431594
 H      0.526113    0.424695   -2.518118
 C      2.747757   -2.036448   -1.847325
 H      4.354710   -1.886310   -0.425878
 H      1.076589   -1.884129   -3.190270
 H      2.999434   -3.050355   -2.146066
 C      2.967982    2.930995   -0.799042
 C      2.540439    4.309571   -0.511330
 H      3.416322    2.896361   -1.799468
 H      3.727547    2.636001   -0.074296
 C      2.164491    5.424301   -0.272594
 H      1.844593    6.416902   -0.061659
 Cl     0.557853    3.105704    2.957668
 Cl    -1.325377    3.825211    0.629025
 O     -0.690920    1.340015   -0.248749
 O     -0.791127    0.959663    2.027012
 C     -1.964452   -0.449145    0.267179
 C     -0.706727   -0.955395    0.797384
 C      1.033703   -0.371083    2.280986
 C     -2.884636    1.408330   -0.846014
 C     -4.147567    0.823014   -0.860800
 C     -3.194997   -1.071377    0.327413
 C     -4.280602   -0.410949   -0.255654
 C     -0.060738   -2.121505    0.444668
 C      1.155939   -2.395084    1.073588
 C      1.726128   -1.538617    1.995099
 H     -5.254352   -0.884836   -0.217973
 H      1.671860   -3.310658    0.813879
 H      1.351706    0.409778    2.955737
 N     -1.862457    0.782917   -0.280702
 N     -0.127693   -0.137226    1.693614
 H     -2.645791    2.381155   -1.245626
 C     -3.394968   -2.390352    1.018775
 H     -3.545114   -3.187253    0.286974
 H     -2.548640   -2.646225    1.647615
 H     -4.287404   -2.340174    1.643889
 C     -0.620306   -3.071384   -0.574248
 H      0.186577   -3.466011   -1.188027
 H     -1.109281   -3.913690   -0.079337
 H     -1.341584   -2.582051   -1.220782
 C     -5.302629    1.561429   -1.484165
 H     -5.560154    2.431213   -0.873181
 H     -5.033954    1.917655   -2.480742
 H     -6.177484    0.918016   -1.560875
 C      3.035712   -1.818870    2.680926
 H      3.507545   -2.707156    2.266096
 H      3.710924   -0.969329    2.567586
 H      2.870452   -1.977499    3.750256
