69

 Si    -0.273916   -1.919510   -0.019814
 O      1.211155   -1.379322    0.296040
 C      2.241881   -1.720210    1.143944
 C      3.488494   -1.892052    0.324142
 H      1.996678   -2.659894    1.648206
 C      3.357870   -2.166689   -1.027654
 C      4.759325   -1.794321    0.874884
 C      4.475981   -2.316357   -1.830047
 H      2.374814   -2.263967   -1.456241
 C      5.883211   -1.948767    0.077779
 H      4.882936   -1.599185    1.932866
 C      5.745115   -2.202800   -1.279207
 H      4.354097   -2.529020   -2.888074
 H      6.871784   -1.868536    0.521248
 H      6.625333   -2.320191   -1.904958
 C      2.361129   -0.629680    2.186832
 C      1.063639   -0.281880    2.779875
 H      3.039339   -0.938546    2.988761
 H      2.780538    0.266531    1.738145
 C      0.008576    0.020574    3.264729
 H     -0.919023    0.269824    3.717323
 Cl    -0.932405   -2.801737   -1.708059
 Cl    -0.304196   -3.559261    1.191515
 O     -1.418446   -1.136588    0.966273
 O     -0.387094   -0.407992   -0.978415
 C     -2.227046    0.874181    0.219873
 C     -0.865507    1.373252    0.348323
 C      1.287957    1.059001   -0.546950
 C     -3.532054   -1.091968    0.189552
 C     -4.659252   -0.414173   -0.279404
 C     -3.299454    1.601245   -0.214782
 C     -4.510093    0.944752   -0.457135
 C     -0.455331    2.504532    0.991271
 C      0.871630    2.916154    0.840713
 C      1.764843    2.235343    0.042202
 H     -3.189487    2.661614   -0.403575
 H     -5.346816    1.528731   -0.817658
 H     -1.157783    3.074954    1.585996
 H      1.187050    3.822860    1.339799
 C      3.163422    2.723284   -0.310970
 F      1.978850    0.336996   -1.312910
 N     -2.390970   -0.444708    0.427057
 N      0.032310    0.663254   -0.364305
 F     -3.492325   -2.330523    0.430551
 C     -5.928162   -1.204390   -0.556761
 C     -6.394624   -1.866503    0.743025
 C     -7.037131   -0.286030   -1.069516
 C     -5.621905   -2.257835   -1.625935
 H     -6.585528   -1.126548    1.519430
 H     -7.323745   -2.406046    0.570660
 H     -5.674112   -2.580714    1.126388
 H     -7.932995   -0.872640   -1.263509
 H     -7.306846    0.479875   -0.343662
 H     -6.766946    0.204249   -2.003678
 H     -6.525962   -2.812704   -1.868775
 H     -5.263118   -1.796853   -2.545209
 H     -4.879329   -2.977190   -1.298689
 C      4.214127    1.674155    0.049232
 C      3.190039    3.001909   -1.818428
 C      3.491370    4.016333    0.436666
 H      4.032575    0.717836   -0.421461
 H      5.194504    2.014636   -0.276896
 H      4.269917    1.521407    1.123716
 H      3.038704    2.102037   -2.404804
 H      2.428020    3.725921   -2.103862
 H      4.154916    3.416668   -2.103106
 H      3.467069    3.883641    1.517383
 H      4.496853    4.340689    0.175387
 H      2.815547    4.828893    0.174666
