69

 Si     0.679136    2.058235   -0.326084
 O     -0.928820    1.970092   -0.260916
 C     -1.920723    2.564419    0.501386
 C     -2.419530    1.502874    1.442787
 H     -1.483451    3.377409    1.086538
 C     -1.463986    0.779600    2.143680
 C     -3.757412    1.203650    1.631775
 C     -1.831415   -0.249245    2.989125
 H     -0.426887    1.036610    2.026968
 C     -4.135999    0.169951    2.479016
 H     -4.520495    1.776978    1.122600
 C     -3.174799   -0.566933    3.151572
 H     -1.070147   -0.799781    3.533393
 H     -5.190449   -0.055259    2.612722
 H     -3.470576   -1.375436    3.814325
 C     -2.940273    3.144558   -0.442875
 C     -2.286988    4.056698   -1.391892
 H     -3.713338    3.692629    0.107958
 H     -3.424802    2.348467   -1.004384
 C     -1.723145    4.787014   -2.159300
 H     -1.239520    5.447200   -2.839547
 Cl     1.884716    2.636466   -1.832098
 Cl     0.978960    3.653158    0.911020
 O      1.345668    1.010529    0.847149
 O      0.519800    0.542494   -1.266827
 C      1.690377   -1.161637    0.214998
 C      0.242886   -1.256288    0.093224
 C     -1.548527   -0.384146   -1.159913
 C      3.473063    0.362936    0.479142
 C      4.432869   -0.612693    0.201980
 C      2.578355   -2.168885   -0.037822
 C      3.946701   -1.880025   -0.039446
 C     -0.572414   -2.203705    0.638353
 C     -1.912261   -2.238140    0.245221
 C     -2.425042   -1.371519   -0.695021
 H      2.214398   -3.161302   -0.271763
 H      4.639570   -2.681770   -0.259165
 H     -0.171316   -2.927307    1.336817
 H     -2.547285   -3.008503    0.660407
 C     -3.791973   -1.531306   -1.348218
 F     -1.860002    0.475395   -2.027668
 N      2.174111    0.063420    0.485575
 N     -0.284251   -0.345759   -0.750304
 F      3.735404    1.567799    0.748027
 C      5.899709   -0.213375    0.181351
 C      6.288415    0.319308    1.563609
 C      6.783513   -1.414930   -0.152450
 C      6.096878    0.861208   -0.892545
 H      6.122229   -0.428330    2.338310
 H      7.346077    0.574726    1.577477
 H      5.737601    1.213916    1.832927
 H      7.826691   -1.105212   -0.164718
 H      6.694149   -2.210200    0.586308
 H      6.560723   -1.829725   -1.134437
 H      7.147806    1.137255   -0.951410
 H      5.797035    0.498929   -1.874931
 H      5.536193    1.765272   -0.682317
 C     -4.572850   -0.221263   -1.367655
 C     -3.541133   -2.009357   -2.784332
 C     -4.626041   -2.575428   -0.604867
 H     -4.743518    0.150214   -0.363815
 H     -4.078312    0.552043   -1.939871
 H     -5.545287   -0.386184   -1.826874
 H     -2.988016   -1.275909   -3.364092
 H     -2.986344   -2.946497   -2.803895
 H     -4.487994   -2.180522   -3.292927
 H     -4.784442   -2.300963    0.436699
 H     -5.605698   -2.657195   -1.071684
 H     -4.177577   -3.566726   -0.636373
