69

 Si     0.192644    1.195101    2.109923
 O      1.115172    1.865464    0.962196
 C      0.772205    2.876721    0.068977
 C     -0.193778    2.281751   -0.908196
 H      0.277918    3.681350    0.618950
 C      0.217249    1.244040   -1.723417
 C     -1.535034    2.613834   -0.855773
 C     -0.703447    0.508804   -2.442903
 H      1.265336    1.000802   -1.780708
 C     -2.463204    1.886270   -1.577411
 H     -1.865557    3.424325   -0.219302
 C     -2.052310    0.820103   -2.358711
 H     -0.373234   -0.301202   -3.084841
 H     -3.514234    2.149939   -1.522062
 H     -2.780574    0.245833   -2.924253
 C      2.038795    3.413417   -0.545423
 C      2.981960    3.858356    0.490740
 H      1.805685    4.253178   -1.212254
 H      2.514711    2.639280   -1.145640
 C      3.742567    4.201001    1.353604
 H      4.421940    4.523124    2.106871
 Cl    -1.434196    2.241552    2.678284
 Cl     1.240958    1.450242    3.825231
 O     -0.806517    0.549060    0.740780
 O      0.745394   -0.440070    2.034616
 C     -0.789430   -1.660496    0.268032
 C      0.620037   -1.462202   -0.014348
 C      2.580788   -0.379065    0.716728
 C     -2.782371   -0.525670    0.775527
 C     -3.548214   -1.686763    0.646596
 C     -1.480195   -2.831570    0.113696
 C     -2.859131   -2.837159    0.324851
 C      1.270555   -1.909040   -1.129107
 C      2.613777   -1.573790   -1.309107
 C      3.304007   -0.799691   -0.402414
 H     -0.948866   -3.733617   -0.162378
 H     -3.395286   -3.770424    0.216470
 H      0.734941   -2.492102   -1.866493
 H      3.119241   -1.933117   -2.196081
 C      4.775818   -0.428700   -0.508305
 F      3.069418    0.300765    1.651466
 N     -1.455683   -0.545696    0.633720
 N      1.304671   -0.730115    0.880303
 F     -3.274457    0.612560    1.016986
 C     -5.050163   -1.600112    0.862450
 C     -5.645796   -0.653253   -0.183237
 C     -5.701508   -2.974881    0.709454
 C     -5.316813   -1.084149    2.279673
 H     -5.438948   -0.999514   -1.195060
 H     -6.726984   -0.606756   -0.068718
 H     -5.266983    0.358114   -0.089009
 H     -6.773720   -2.888926    0.874883
 H     -5.563765   -3.388239   -0.288617
 H     -5.322058   -3.693150    1.434723
 H     -6.388231   -1.050173    2.466893
 H     -4.874936   -1.739579    3.029025
 H     -4.929470   -0.083706    2.436876
 C      4.909947    1.093931   -0.538448
 C      5.514324   -1.013384    0.699654
 C      5.388826   -1.003810   -1.785267
 H      4.484078    1.569977    0.335763
 H      5.960933    1.371752   -0.581544
 H      4.428611    1.513979   -1.418866
 H      5.178976   -0.584574    1.637271
 H      5.390811   -2.094091    0.756553
 H      6.580162   -0.811362    0.614628
 H      4.903080   -0.624876   -2.683347
 H      6.437146   -0.717548   -1.844024
 H      5.352408   -2.092053   -1.807125
