69

 Si     0.810379   -0.528892    1.768927
 O      0.533721   -1.689844    0.680090
 C      1.167282   -2.031074   -0.502300
 C      1.846302   -3.357392   -0.323136
 H      1.908668   -1.274967   -0.761899
 C      1.245333   -4.318595    0.474065
 C      3.052511   -3.638226   -0.948824
 C      1.845943   -5.552791    0.655778
 H      0.314314   -4.085462    0.969511
 C      3.655403   -4.875730   -0.774620
 H      3.527388   -2.889262   -1.573906
 C      3.053598   -5.834084    0.028237
 H      1.371953   -6.296901    1.289126
 H      4.600442   -5.089708   -1.265810
 H      3.526873   -6.802019    0.167544
 C      0.130394   -2.098271   -1.599891
 C     -0.341513   -0.779601   -2.051309
 H      0.543295   -2.608109   -2.477920
 H     -0.710971   -2.689323   -1.240862
 C     -0.690189    0.285714   -2.482636
 H     -0.999858    1.207535   -2.907790
 Cl     2.547649    0.348626    2.276914
 Cl     0.619303   -1.693338    3.427749
 O      0.741579    0.513650    0.264557
 O     -0.646567    0.294321    2.090250
 C     -0.586842    2.350949    0.467599
 C     -1.673193    1.389666    0.369802
 C     -2.278656   -0.808169    0.966638
 C      1.730160    2.542129    0.127050
 C      1.694095    3.933603    0.257720
 C     -0.699601    3.708326    0.574589
 C      0.456840    4.489007    0.502879
 C     -2.731427    1.460408   -0.489389
 C     -3.574774    0.352965   -0.612710
 C     -3.362842   -0.814864    0.087200
 H     -1.675256    4.155964    0.717492
 H      0.364708    5.560546    0.618610
 H     -2.877751    2.346074   -1.093893
 H     -4.404183    0.414169   -1.305131
 C     -4.227744   -2.062731   -0.001896
 F     -1.954798   -1.774248    1.704573
 N      0.638353    1.799631    0.309286
 N     -1.517031    0.275132    1.102305
 F      2.771981    1.897245   -0.193786
 C      2.992448    4.713026    0.132646
 C      3.559896    4.514451   -1.275685
 C      2.754425    6.205912    0.361263
 C      3.972457    4.202768    1.193470
 H      2.855988    4.847945   -2.037276
 H      4.469897    5.099383   -1.394073
 H      3.812429    3.479859   -1.479124
 H      3.699193    6.740053    0.281014
 H      2.080415    6.634132   -0.379218
 H      2.352948    6.411464    1.352412
 H      4.901319    4.767301    1.143329
 H      3.567719    4.325562    2.196970
 H      4.221337    3.156347    1.058526
 C     -3.360298   -3.241409   -0.448097
 C     -4.840790   -2.332228    1.375908
 C     -5.354625   -1.869191   -1.016529
 H     -2.554312   -3.449870    0.246424
 H     -3.968113   -4.141241   -0.518797
 H     -2.927229   -3.062238   -1.430132
 H     -4.089059   -2.544003    2.128494
 H     -5.434944   -1.485922    1.718104
 H     -5.501151   -3.195631    1.325332
 H     -4.975918   -1.675022   -2.018927
 H     -5.954255   -2.775837   -1.069353
 H     -6.025046   -1.057668   -0.737463
