69

 Si    -0.185728   -1.248672    1.187202
 O      1.037411   -2.302703    0.953543
 C      2.385075   -2.387920    1.200225
 C      3.159797   -1.848146    0.033021
 H      2.637096   -1.804113    2.089980
 C      2.588605   -1.856911   -1.224989
 C      4.428070   -1.314298    0.203523
 C      3.253929   -1.300285   -2.303174
 H      1.608905   -2.287167   -1.349566
 C      5.107810   -0.769850   -0.874076
 H      4.884042   -1.314183    1.187454
 C      4.517411   -0.751754   -2.129496
 H      2.789646   -1.303950   -3.285089
 H      6.100945   -0.353357   -0.731282
 H      5.046219   -0.319403   -2.974373
 C      2.711545   -3.841180    1.463553
 C      2.003849   -4.337372    2.655028
 H      3.789845   -3.977185    1.608863
 H      2.408462   -4.430390    0.596165
 C      1.421270   -4.719503    3.632953
 H      0.920548   -5.075956    4.500981
 Cl     0.371452   -0.481630    2.968111
 Cl    -1.581710   -2.677084    0.902536
 O      0.296138   -0.463227   -0.256688
 O     -1.422003    0.056519    1.211156
 C     -0.693040    1.530892   -0.785878
 C     -1.937065    0.784714   -0.904382
 C     -3.491294   -0.410556    0.397378
 C      1.510990    1.407307    0.032887
 C      1.710528    2.781065   -0.107183
 C     -0.558424    2.878993   -0.971722
 C      0.651888    3.490373   -0.635128
 C     -2.803093    0.797584   -1.958352
 C     -4.028049    0.134108   -1.830715
 C     -4.413639   -0.466064   -0.652957
 H     -1.398696    3.458578   -1.332538
 H      0.742850    4.560180   -0.770127
 H     -2.534054    1.314359   -2.871077
 H     -4.698185    0.122127   -2.679901
 C     -5.737820   -1.176191   -0.424683
 F     -3.737190   -0.823785    1.565078
 N      0.359250    0.837778   -0.319846
 N     -2.281828    0.123650    0.222894
 F      2.366269    0.602736    0.487821
 C      3.041206    3.375375    0.323092
 C      4.150619    2.757094   -0.530837
 C      3.047400    4.891089    0.125983
 C      3.259325    3.068548    1.807697
 H      3.998176    2.964901   -1.588958
 H      5.113429    3.179517   -0.250843
 H      4.218769    1.683379   -0.406126
 H      4.007203    5.293857    0.443612
 H      2.911957    5.172111   -0.917444
 H      2.279750    5.386448    0.718865
 H      4.186065    3.526421    2.147549
 H      2.452071    3.470344    2.418500
 H      3.332609    2.005267    2.004814
 C     -5.449475   -2.626284   -0.024994
 C     -6.511601   -0.448494    0.678255
 C     -6.580646   -1.175437   -1.700043
 H     -4.890787   -2.698150    0.900940
 H     -6.384337   -3.165123    0.115331
 H     -4.884602   -3.144390   -0.798396
 H     -5.995959   -0.471685    1.631678
 H     -6.692360    0.592973    0.414794
 H     -7.480826   -0.921559    0.823198
 H     -6.083247   -1.687510   -2.522412
 H     -7.516830   -1.698888   -1.516088
 H     -6.835937   -0.167930   -2.025298
