69

 Si     0.145957    0.917291    2.143021
 O      0.792917    2.019398    1.161035
 C      0.851947    2.352201   -0.177955
 C     -0.519356    2.352396   -0.777921
 H      1.466174    1.614480   -0.699153
 C     -1.525877    3.061452   -0.147132
 C     -0.815422    1.601271   -1.900962
 C     -2.817859    3.031736   -0.635484
 H     -1.295378    3.638793    0.737023
 C     -2.110000    1.560289   -2.392459
 H     -0.032525    1.043846   -2.400664
 C     -3.113211    2.278962   -1.763032
 H     -3.596608    3.598095   -0.134398
 H     -2.333633    0.973002   -3.278659
 H     -4.126029    2.258073   -2.153783
 C      1.525704    3.703115   -0.268967
 C      2.804258    3.724626    0.457821
 H      1.694461    3.980307   -1.317286
 H      0.870750    4.454387    0.174470
 C      3.832916    3.747631    1.076125
 H      4.750609    3.790205    1.611982
 Cl    -1.696842    0.854554    2.958747
 Cl     1.125627    1.561736    3.803670
 O     -0.509405    0.258855    0.594520
 O      0.971898   -0.576002    2.141155
 C     -0.500281   -2.012616    0.479055
 C      0.921009   -1.832253    0.228414
 C      2.750239   -0.435295    0.744438
 C     -2.502438   -0.779068    0.494316
 C     -3.284563   -1.936752    0.532936
 C     -1.202151   -3.184329    0.491004
 C     -2.598074   -3.131673    0.553598
 C      1.609572   -2.366133   -0.823348
 C      2.913570   -1.926856   -1.067332
 C      3.512409   -0.941035   -0.312152
 H     -0.674048   -4.128937    0.450638
 H     -3.148034   -4.062698    0.588206
 H      1.128835   -3.086026   -1.473611
 H      3.451582   -2.356295   -1.902175
 C      4.902445   -0.377891   -0.564462
 F      3.115136    0.489516    1.515076
 N     -1.174404   -0.843564    0.543631
 N      1.538456   -0.926038    1.006457
 F     -2.972133    0.386793    0.388560
 C     -4.795910   -1.790363    0.557020
 C     -5.246268   -1.102373   -0.734614
 C     -5.473727   -3.157207    0.652146
 C     -5.186028   -0.959249    1.782803
 H     -4.955059   -1.678366   -1.612123
 H     -6.330678   -1.012513   -0.748326
 H     -4.836454   -0.104080   -0.835454
 H     -6.553755   -3.025873    0.678024
 H     -5.248244   -3.789745   -0.205221
 H     -5.193621   -3.692479    1.558207
 H     -6.268679   -0.865726    1.838865
 H     -4.849617   -1.432002    2.704227
 H     -4.774600    0.042931    1.751563
 C      4.750074    1.076517   -1.013969
 C      5.730660   -0.470416    0.719712
 C      5.615671   -1.168789   -1.661744
 H      4.262624    1.690783   -0.266476
 H      5.728594    1.511502   -1.206032
 H      4.176414    1.146414   -1.937011
 H      5.332954    0.144687    1.518220
 H      5.793520   -1.496667    1.079175
 H      6.746011   -0.130242    0.527051
 H      5.099634   -1.108455   -2.618575
 H      6.612268   -0.758559   -1.812364
 H      5.736014   -2.219278   -1.400065
