69

 Si    -0.753240   -1.844434   -0.914194
 O      0.857585   -1.795660   -0.929950
 C      1.875088   -2.607787   -0.457667
 C      2.455366   -1.903473    0.737715
 H      1.450642   -3.561364   -0.133254
 C      1.561294   -1.430489    1.688641
 C      3.809816   -1.693550    0.929299
 C      2.004409   -0.727474    2.792185
 H      0.512453   -1.627631    1.561184
 C      4.264269   -0.986391    2.035171
 H      4.526630   -2.083566    0.219090
 C      3.363322   -0.491411    2.963967
 H      1.290514   -0.370943    3.528439
 H      5.330579   -0.826177    2.168560
 H      3.718596    0.061768    3.828938
 C      2.823180   -2.866943   -1.598606
 C      2.092605   -3.424585   -2.745116
 H      3.610891   -3.567649   -1.298681
 H      3.297787   -1.938111   -1.908443
 C      1.466416   -3.868190   -3.667775
 H      0.927195   -4.273631   -4.490778
 Cl    -2.058598   -1.905659   -2.446757
 Cl    -1.025398   -3.747180   -0.228721
 O     -1.324811   -1.218556    0.568834
 O     -0.605717   -0.110058   -1.335756
 C     -1.641914    1.045520    0.679322
 C     -0.201557    1.161600    0.503140
 C      1.489918    0.719146   -1.072702
 C     -3.449765   -0.467339    0.556668
 C     -4.395474    0.554670    0.661936
 C     -2.513804    2.089371    0.810878
 C     -3.887749    1.828746    0.802368
 C      0.669007    1.881954    1.266402
 C      1.984334    2.029755    0.819972
 C      2.418008    1.502469   -0.376539
 H     -2.135339    3.101314    0.880178
 H     -4.568753    2.665345    0.888824
 H      0.328788    2.349412    2.181864
 H      2.662953    2.623876    1.416315
 C      3.749276    1.849557   -1.030686
 F      1.727632    0.176585   -2.185291
 N     -2.144481   -0.197390    0.576877
 N      0.251108    0.561524   -0.616551
 F     -3.730793   -1.692438    0.443259
 C     -5.872037    0.195969    0.609424
 C     -6.195743   -0.744772    1.773722
 C     -6.738610    1.449185    0.730742
 C     -6.161465   -0.479662   -0.734606
 H     -5.964125   -0.283562    2.733103
 H     -7.257657   -0.982283    1.773333
 H     -5.656003   -1.683357    1.710752
 H     -7.789269    1.168886    0.687566
 H     -6.583867    1.967475    1.676058
 H     -6.561100    2.152623   -0.081449
 H     -7.221695   -0.712496   -0.811225
 H     -5.907818    0.172989   -1.568846
 H     -5.616630   -1.409164   -0.857484
 C      4.492726    0.605805   -1.506639
 C      3.430409    2.755577   -2.227006
 C      4.651194    2.601879   -0.051466
 H      4.708735   -0.063518   -0.681872
 H      3.946783    0.055101   -2.260766
 H      5.442542    0.898432   -1.949321
 H      2.827125    2.244804   -2.972042
 H      2.899490    3.655196   -1.918445
 H      4.351289    3.071339   -2.713613
 H      4.862125    2.013231    0.839775
 H      5.604176    2.820112   -0.529510
 H      4.227154    3.555677    0.257256
