69

 Si     0.244993   -1.283826    2.121261
 O     -0.956271   -2.057856    1.365823
 C     -1.077738   -2.777888    0.176685
 C     -1.196437   -1.805138   -0.961124
 H     -2.021840   -3.329257    0.272036
 C     -0.218624   -1.631845   -1.923743
 C     -2.309069   -0.981256   -0.975392
 C     -0.328299   -0.622249   -2.864031
 H      0.648145   -2.272390   -1.935264
 C     -2.441670    0.012494   -1.928930
 H     -3.082317   -1.136443   -0.236928
 C     -1.440224    0.206491   -2.869001
 H      0.452602   -0.491598   -3.607914
 H     -3.332209    0.631198   -1.946344
 H     -1.535082    0.988462   -3.617284
 C      0.053650   -3.764100    0.057483
 C      0.091465   -4.659988    1.221022
 H     -0.057969   -4.362683   -0.853088
 H      0.995385   -3.227901    0.003394
 C      0.113323   -5.375186    2.184211
 H      0.145201   -6.014104    3.034668
 Cl    -0.390955   -1.657939    4.010362
 Cl     2.169167   -1.820983    2.360282
 O      0.601989   -0.772716    0.416239
 O     -0.001249    0.396810    2.273348
 C      1.170550    1.400712    0.114648
 C     -0.232382    1.668523    0.381296
 C     -2.092870    0.970670    1.649351
 C      2.659994   -0.347925   -0.376066
 C      3.692937    0.534592   -0.695515
 C      2.128126    2.322998   -0.209565
 C      3.397102    1.877441   -0.582566
 C     -1.036318    2.487812   -0.358041
 C     -2.397146    2.561024   -0.050094
 C     -2.968492    1.798142    0.944793
 H      1.891580    3.378776   -0.167724
 H      4.156143    2.613343   -0.811733
 H     -0.619869    3.047318   -1.185310
 H     -3.020293    3.222638   -0.637361
 C     -4.437880    1.819723    1.338084
 F     -2.437269    0.196145    2.580456
 N      1.487145    0.090050    0.077723
 N     -0.786037    0.970306    1.388321
 F      2.738984   -1.605833   -0.514162
 C      5.034435   -0.034112   -1.124905
 C      4.845480   -0.831670   -2.418386
 C      6.043646    1.085736   -1.379277
 C      5.565363   -0.931243   -0.002693
 H      4.437622   -0.207794   -3.212852
 H      5.804967   -1.212660   -2.762477
 H      4.188342   -1.684022   -2.286903
 H      6.998611    0.653964   -1.672500
 H      5.730345    1.747879   -2.185155
 H      6.223226    1.687232   -0.489456
 H      6.540844   -1.329149   -0.275019
 H      5.685978   -0.373903    0.925030
 H      4.914633   -1.775144    0.196193
 C     -5.030392    0.418841    1.170226
 C     -4.541481    2.277406    2.796732
 C     -5.218844    2.794116    0.456406
 H     -4.536709   -0.319125    1.792681
 H     -6.081491    0.428885    1.451872
 H     -4.973202    0.085694    0.136095
 H     -4.060508    1.586632    3.480952
 H     -4.094726    3.260828    2.937175
 H     -5.586924    2.348813    3.089933
 H     -5.184990    2.515130   -0.595757
 H     -6.265483    2.793836    0.754482
 H     -4.858713    3.817270    0.553299
