69

 Si    -0.084751   -0.863002    1.562726
 O      1.328035   -1.682776    1.657492
 C      1.835899   -2.665554    0.822845
 C      2.760287   -2.000454   -0.152167
 H      1.017937   -3.128342    0.267784
 C      4.013952   -1.568023    0.243892
 C      2.318911   -1.710700   -1.431927
 C      4.819043   -0.852266   -0.624662
 H      4.365580   -1.783681    1.242868
 C      3.108721   -0.978143   -2.301591
 H      1.344210   -2.052459   -1.751403
 C      4.364216   -0.548351   -1.899751
 H      5.804497   -0.529066   -0.302948
 H      2.750316   -0.756351   -3.302845
 H      4.992497    0.015762   -2.583195
 C      2.499406   -3.720331    1.673867
 C      1.528630   -4.431285    2.521398
 H      3.016445   -4.453380    1.042724
 H      3.238133   -3.243410    2.318042
 C      0.736261   -5.013626    3.210263
 H      0.048344   -5.541841    3.825638
 Cl     0.297399    0.224350    3.219156
 Cl    -1.362993   -2.413021    1.483109
 O      0.328252   -0.414608   -0.042989
 O     -1.371651    0.360957    1.300030
 C     -0.551551    1.510717   -0.861898
 C     -1.795134    0.757678   -0.923465
 C     -3.368694   -0.315581    0.456955
 C      1.625215    1.427611    0.039942
 C      1.851030    2.779748   -0.222697
 C     -0.378938    2.823911   -1.196402
 C      0.830741    3.444333   -0.871577
 C     -2.614549    0.609241   -2.003947
 C     -3.825409   -0.071502   -1.841082
 C     -4.241576   -0.536326   -0.613342
 H     -1.190114    3.377060   -1.653071
 H      0.948652    4.493433   -1.109201
 H     -2.316837    1.008903   -2.965361
 H     -4.457637   -0.212402   -2.707572
 C     -5.550675   -1.262068   -0.350082
 F     -3.651497   -0.594185    1.656338
 N      0.469326    0.852880   -0.288040
 N     -2.172699    0.241939    0.267405
 F      2.437080    0.654264    0.609155
 C      3.150227    3.414049    0.245678
 C      4.319971    2.733522   -0.465354
 C      3.172722    4.907993   -0.077476
 C      3.256373    3.234358    1.763543
 H      4.249777    2.851480   -1.545569
 H      5.259267    3.181791   -0.148093
 H      4.372881    1.674890   -0.245586
 H      4.108468    5.339416    0.272563
 H      3.112767    5.099485   -1.147914
 H      2.366075    5.448500    0.415683
 H      4.157029    3.721872    2.131052
 H      2.407790    3.684198    2.276744
 H      3.310376    2.191689    2.055193
 C     -5.233989   -2.639117    0.240886
 C     -6.395490   -0.431921    0.620454
 C     -6.336055   -1.452624   -1.647735
 H     -4.714498   -2.573826    1.189932
 H     -6.156362   -3.190538    0.411626
 H     -4.620148   -3.228840   -0.438265
 H     -5.921442   -0.315854    1.588623
 H     -6.597852    0.560918    0.220405
 H     -7.354415   -0.919036    0.785863
 H     -5.785624   -2.042253   -2.379378
 H     -7.260802   -1.986150   -1.436817
 H     -6.611357   -0.504051   -2.106470
