69

 Si    -0.400390   -2.050730   -0.772707
 O      1.177194   -1.906214   -0.483250
 C      2.198614   -2.101109    0.428972
 C      1.926378   -1.271020    1.653054
 H      3.097415   -1.716804   -0.060469
 C      0.712525   -1.384572    2.308491
 C      2.860520   -0.361048    2.123008
 C      0.406601   -0.567429    3.380078
 H      0.000498   -2.114641    1.968242
 C      2.570632    0.452597    3.208935
 H      3.825969   -0.282391    1.641679
 C      1.335427    0.361381    3.832329
 H     -0.556605   -0.665014    3.871554
 H      3.312768    1.161002    3.566227
 H      1.101346    1.002484    4.677800
 C      2.437272   -3.558331    0.734431
 C      2.696833   -4.305386   -0.505590
 H      3.304991   -3.650728    1.399487
 H      1.573617   -3.986243    1.239428
 C      2.902474   -4.886221   -1.535722
 H      3.089392   -5.422527   -2.435630
 Cl    -1.288295   -2.575644   -2.502260
 Cl    -0.803270   -3.768011    0.257374
 O     -1.263815   -1.159252    0.398408
 O     -0.247870   -0.441494   -1.540937
 C     -1.512397    1.094277    0.068572
 C     -0.059818    1.185938    0.042875
 C      1.786920    0.483923   -1.236847
 C     -3.326230   -0.407611   -0.077376
 C     -4.250577    0.621324   -0.263323
 C     -2.368252    2.150009   -0.085353
 C     -3.733876    1.900026   -0.244697
 C      0.727445    2.066880    0.726081
 C      2.081074    2.152039    0.394623
 C      2.641646    1.396023   -0.612454
 H     -1.975453    3.158013   -0.125561
 H     -4.396983    2.743840   -0.383715
 H      0.295451    2.697050    1.492703
 H      2.695336    2.861142    0.932348
 C      4.066377    1.545770   -1.125909
 F      2.137552   -0.271994   -2.183074
 N     -2.029728   -0.146582    0.093950
 N      0.507614    0.395612   -0.888991
 F     -3.620192   -1.636213   -0.044498
 C     -5.714455    0.266503   -0.469742
 C     -6.221667   -0.481645    0.766515
 C     -6.555326    1.527957   -0.664301
 C     -5.833411   -0.607058   -1.722439
 H     -6.113152    0.120730    1.667713
 H     -7.279314   -0.710910    0.652715
 H     -5.703827   -1.421560    0.923934
 H     -7.597173    1.250243   -0.811873
 H     -6.519188    2.185685    0.203047
 H     -6.248305    2.096466   -1.540981
 H     -6.878803   -0.842512   -1.911944
 H     -5.448741   -0.093061   -2.602326
 H     -5.303385   -1.548057   -1.623943
 C      4.798670    0.203648   -1.109897
 C      3.985542    2.082349   -2.560055
 C      4.850505    2.537049   -0.265588
 H      4.312942   -0.548191   -1.719294
 H      5.805404    0.334446   -1.501506
 H      4.895584   -0.188218   -0.101188
 H      3.486945    1.387460   -3.228299
 H      3.454686    3.032599   -2.601020
 H      4.986128    2.250912   -2.953414
 H      4.915340    2.216665    0.773152
 H      5.868512    2.619445   -0.641559
 H      4.420359    3.536937   -0.289987
