69

 Si     0.243647   -0.685694    1.465736
 O      1.802306   -1.174180    1.529872
 C      2.739710   -1.492513    0.564172
 C      2.258729   -2.675773   -0.220218
 H      2.848202   -0.660183   -0.126535
 C      2.240970   -3.942799    0.340392
 C      1.733006   -2.486555   -1.488642
 C      1.705915   -5.011996   -0.356944
 H      2.638532   -4.094620    1.334461
 C      1.193925   -3.551838   -2.193306
 H      1.743308   -1.498538   -1.929816
 C      1.178680   -4.817814   -1.627201
 H      1.699839   -6.000580    0.092448
 H      0.790396   -3.394056   -3.189413
 H      0.760748   -5.656516   -2.176845
 C      4.058257   -1.702277    1.263238
 C      4.545030   -0.458090    1.882465
 H      4.819074   -2.059627    0.558347
 H      3.936835   -2.454223    2.042911
 C      4.947769    0.557399    2.381171
 H      5.336609    1.435692    2.835917
 Cl    -0.661824   -2.461233    1.236741
 Cl     0.320376    0.246103    3.254488
 O     -1.285223    0.242960    1.278237
 O      0.568844    0.034564   -0.063986
 C     -1.709711    0.901269   -0.879193
 C     -0.655692    1.869542   -0.616094
 C      1.470155    2.057654    0.386756
 C     -3.042783   -0.710976    0.195768
 C     -3.799652   -0.935552   -0.959679
 C     -2.434485    0.764562   -2.026248
 C     -3.460184   -0.186056   -2.063490
 C     -0.735414    3.228077   -0.733605
 C      0.329017    4.006267   -0.265536
 C      1.447016    3.450829    0.321506
 H     -2.201747    1.377592   -2.888081
 H     -4.010726   -0.314061   -2.985915
 H     -1.627809    3.684345   -1.143628
 H      0.251272    5.082859   -0.345139
 C      2.616746    4.222806    0.908728
 F      2.401533    1.375921    0.887912
 N     -2.000072    0.118932    0.184995
 N      0.459351    1.334689   -0.091013
 F     -3.303865   -1.240176    1.312137
 C     -4.909920   -1.972425   -0.913448
 C     -5.963728   -1.532144    0.106377
 C     -5.577435   -2.114045   -2.281390
 C     -4.298744   -3.321079   -0.521437
 H     -6.379574   -0.558025   -0.148398
 H     -6.786166   -2.244662    0.119398
 H     -5.568903   -1.477475    1.114656
 H     -6.356984   -2.871519   -2.227932
 H     -6.051908   -1.189379   -2.606840
 H     -4.875445   -2.430457   -3.051482
 H     -5.069788   -4.088827   -0.510547
 H     -3.536724   -3.631944   -1.234589
 H     -3.846382   -3.301514    0.463399
 C      2.700255    3.902829    2.404629
 C      3.902104    3.801493    0.190770
 C      2.417141    5.727240    0.729643
 H      2.890914    2.852101    2.592451
 H      3.511433    4.468329    2.859002
 H      1.781409    4.177374    2.920668
 H      4.140692    2.755734    0.349028
 H      3.835356    3.979222   -0.881941
 H      4.741767    4.383580    0.565021
 H      1.524721    6.087835    1.239127
 H      3.265415    6.259391    1.155733
 H      2.353880    6.012230   -0.319766
