69

 Si     0.400882   -1.257835    1.865939
 O     -0.831989   -1.748361    0.927172
 C     -1.063431   -2.038451   -0.404673
 C     -2.520841   -1.832363   -0.697290
 H     -0.471302   -1.389362   -1.044343
 C     -3.461975   -2.421892    0.134050
 C     -2.939784   -1.154509   -1.832155
 C     -4.808550   -2.366728   -0.180777
 H     -3.128212   -2.935928    1.025330
 C     -4.290340   -1.088392   -2.149142
 H     -2.208902   -0.703465   -2.494603
 C     -5.224948   -1.705581   -1.331649
 H     -5.535857   -2.843005    0.470230
 H     -4.610186   -0.568700   -3.048098
 H     -6.280554   -1.667241   -1.585472
 C     -0.693965   -3.477544   -0.685744
 C      0.728182   -3.776498   -0.470708
 H     -0.948979   -3.734278   -1.720471
 H     -1.281742   -4.119433   -0.027933
 C      1.879648   -4.067354   -0.300225
 H      2.894457   -4.335547   -0.139434
 Cl    -0.604910   -1.693340    3.583556
 Cl     2.208553   -1.867035    2.529428
 O      1.148119   -0.887203    0.250510
 O      0.299254    0.438676    1.994977
 C      1.685641    1.288940   -0.041517
 C      0.244797    1.493449   -0.033991
 C     -1.725207    1.082961    1.198020
 C      3.342151   -0.375517   -0.038799
 C      4.368001    0.566697   -0.170806
 C      2.632339    2.259391   -0.204921
 C      3.978797    1.886102   -0.239063
 C     -0.476631    2.148341   -0.988931
 C     -1.855691    2.298367   -0.808633
 C     -2.512512    1.803459    0.296086
 H      2.331794    3.295863   -0.292804
 H      4.727172    2.660452   -0.341055
 H      0.023579    2.555119   -1.858749
 H     -2.413100    2.846488   -1.556730
 C     -3.963647    2.096591    0.648561
 F     -2.160945    0.539535    2.242667
 N      2.070467    0.001903    0.087102
 N     -0.408756    0.971188    1.019571
 F      3.538163   -1.623660   -0.060822
 C      5.805259    0.076119   -0.224034
 C      5.985029   -0.807697   -1.461519
 C      6.778096    1.252119   -0.314023
 C      6.100772   -0.709452    1.057192
 H      5.749471   -0.263002   -2.375010
 H      7.019980   -1.135905   -1.534951
 H      5.365662   -1.696999   -1.430103
 H      7.799430    0.877004   -0.336384
 H      6.632867    1.839301   -1.219607
 H      6.699775    1.917632    0.544365
 H      7.135404   -1.046455    1.056071
 H      5.958764   -0.090518    1.941885
 H      5.473752   -1.587793    1.159414
 C     -4.706971    0.817101    1.016509
 C     -3.947422    3.060859    1.840983
 C     -4.680282    2.754214   -0.530158
 H     -4.334607    0.358934    1.922806
 H     -5.758320    1.041380    1.180401
 H     -4.646435    0.088963    0.220434
 H     -3.475603    2.617673    2.713722
 H     -3.423242    3.985943    1.603602
 H     -4.965456    3.324593    2.120977
 H     -4.684465    2.113165   -1.410208
 H     -5.717845    2.945247   -0.263638
 H     -4.242649    3.713277   -0.802389
