69

 Si    -0.076521   -0.992090    1.671321
 O      1.345486   -1.794413    1.787083
 C      1.937317   -2.770184    0.999954
 C      2.017216   -2.215406   -0.393578
 H      1.300912   -3.659391    0.986866
 C      2.960925   -1.262224   -0.724051
 C      0.994160   -2.489536   -1.285854
 C      2.846709   -0.533972   -1.892590
 H      3.780431   -1.066837   -0.051051
 C      0.875148   -1.771108   -2.461355
 H      0.263210   -3.249388   -1.041812
 C      1.790091   -0.773809   -2.757808
 H      3.591121    0.218313   -2.134868
 H      0.064735   -1.992060   -3.149616
 H      1.699809   -0.203822   -3.678359
 C      3.259658   -3.126189    1.626775
 C      3.064666   -3.729298    2.954840
 H      3.812008   -3.831270    0.992955
 H      3.861618   -2.224410    1.736483
 C      2.888444   -4.224249    4.034294
 H      2.751838   -4.671325    4.990015
 Cl     0.121873   -0.058813    3.440520
 Cl    -1.312956   -2.553101    1.399685
 O      0.475741   -0.362502    0.185413
 O     -1.364348    0.232319    1.369760
 C     -0.311502    1.605866   -0.586506
 C     -1.525310    0.848554   -0.845968
 C     -3.217293   -0.388719    0.218777
 C      1.745432    1.446059    0.554154
 C      2.036837    2.793627    0.351350
 C     -0.085487    2.931159   -0.837015
 C      1.099781    3.506950   -0.370872
 C     -2.203627    0.787913   -2.028426
 C     -3.400022    0.067804   -2.084713
 C     -3.945931   -0.523468   -0.967110
 H     -0.833829    3.521358   -1.351101
 H      1.266777    4.559646   -0.558696
 H     -1.802883    1.284867   -2.902907
 H     -3.915548   -0.002641   -3.033139
 C     -5.252637   -1.299120   -0.937837
 F     -3.638035   -0.787962    1.341381
 N      0.631923    0.910667    0.062380
 N     -2.023476    0.206197    0.235705
 F      2.455285    0.633192    1.204114
 C      3.318939    3.359478    0.938379
 C      4.509549    2.595218    0.352823
 C      3.465463    4.842086    0.597536
 C      3.266016    3.199650    2.461098
 H      4.540446    2.678991   -0.732719
 H      5.440146    3.006701    0.738425
 H      4.491030    1.542160    0.610457
 H      4.390159    5.223623    1.026205
 H      3.513799    5.014904   -0.476768
 H      2.652508    5.440433    1.006344
 H      4.163309    3.621186    2.909864
 H      2.410364    3.723563    2.884648
 H      3.207765    2.160536    2.766272
 C     -4.966832   -2.718814   -0.439692
 C     -6.237684   -0.582406   -0.010122
 C     -5.865086   -1.383026   -2.336035
 H     -4.569708   -2.733214    0.568697
 H     -5.884983   -3.302779   -0.436305
 H     -4.256411   -3.229570   -1.088045
 H     -5.889307   -0.544802    1.015918
 H     -6.424125    0.438111   -0.342558
 H     -7.192151   -1.105100   -0.008954
 H     -5.209355   -1.888757   -3.043328
 H     -6.790667   -1.953784   -2.293080
 H     -6.112931   -0.401575   -2.737652
