75

 Si     0.527860    2.315363   -0.261956
 O     -1.079332    2.190588   -0.258984
 C     -2.110299    2.750727    0.476662
 C     -2.591899    1.676682    1.412422
 H     -1.717416    3.581828    1.067589
 C     -1.627625    1.006517    2.152889
 C     -3.919887    1.317327    1.561576
 C     -1.974955   -0.027632    2.999905
 H     -0.599805    1.309212    2.066700
 C     -4.277978    0.275538    2.407743
 H     -4.691555    1.850893    1.023191
 C     -3.306478   -0.407428    3.121302
 H     -1.206815   -0.532254    3.577133
 H     -5.324678    0.002751    2.509868
 H     -3.586837   -1.220694    3.784938
 C     -3.126203    3.291322   -0.494422
 C     -2.481347    4.221287   -1.431760
 H     -3.930783    3.814400    0.035228
 H     -3.569723    2.477736   -1.064099
 C     -1.923098    4.966949   -2.188454
 H     -1.445701    5.640457   -2.859917
 Cl     1.789457    2.977111   -1.688804
 Cl     0.737600    3.879639    1.034293
 O      1.170943    1.241350    0.899014
 O      0.440347    0.844805   -1.277868
 C      1.650707   -0.849797    0.118848
 C      0.204138   -0.986638    0.040471
 C     -1.598306   -0.145129   -1.226187
 C      3.337667    0.758875    0.523321
 C      4.349598   -0.123076    0.132880
 C      2.581310   -1.770799   -0.286163
 C      3.930624   -1.371491   -0.257343
 C     -0.591049   -1.928459    0.629713
 C     -1.931821   -1.977905    0.206244
 C     -2.454190   -1.153324   -0.757899
 H      4.670235   -2.089376   -0.582614
 H     -2.558991   -2.747896    0.630869
 C     -3.805652   -1.366799   -1.426764
 F     -1.927972    0.710254   -2.092704
 N      2.067773    0.373156    0.502104
 N     -0.344757   -0.085637   -0.806676
 F      3.529505    1.944761    0.911639
 C      5.790172    0.360413    0.144469
 C      6.164498    0.768976    1.572147
 C      6.738844   -0.744814   -0.318290
 C      5.910352    1.551134   -0.811895
 H      6.052861   -0.063598    2.265863
 H      7.205193    1.085056    1.606404
 H      5.564884    1.595733    1.937030
 H      7.762376   -0.375393   -0.301001
 H      6.702097   -1.618272    0.331325
 H      6.531366   -1.065309   -1.338159
 H      6.942088    1.895384   -0.847326
 H      5.620730    1.275845   -1.825024
 H      5.298452    2.392103   -0.505228
 C     -4.627688   -0.083549   -1.486743
 C     -3.515151   -1.862146   -2.849747
 C     -4.619232   -2.422927   -0.678143
 H     -4.824718    0.304915   -0.494376
 H     -4.150088    0.692053   -2.070132
 H     -5.588012   -0.290171   -1.954596
 H     -2.972786   -1.122463   -3.432067
 H     -2.933051   -2.782820   -2.843481
 H     -4.446914   -2.069557   -3.372596
 H     -4.805039   -2.133902    0.354846
 H     -5.587238   -2.545794   -1.160107
 H     -4.138455   -3.399460   -0.681658
 C      2.212004   -3.140581   -0.781443
 H      2.387543   -3.886703   -0.002411
 H      1.169571   -3.188679   -1.078877
 H      2.830572   -3.400971   -1.640582
 C     -0.078131   -2.902133    1.651747
 H     -0.740271   -2.899663    2.518340
 H     -0.062425   -3.916136    1.245662
 H      0.922986   -2.641766    1.982120
