75

 Si     0.370041   -1.329283    1.334145
 O      1.970048   -1.916425    0.656725
 C      2.963319   -2.418609    1.165423
 C      4.182334   -2.678860    0.421180
 H      2.949657   -2.682643    2.228123
 C      4.256728   -2.306833   -0.922532
 C      5.269911   -3.283102    1.049016
 C      5.412378   -2.540423   -1.635066
 H      3.396101   -1.837213   -1.381134
 C      6.430932   -3.519191    0.330720
 H      5.202817   -3.566079    2.095184
 C      6.498673   -3.148624   -1.005058
 H      5.479010   -2.255328   -2.680538
 H      7.282719   -3.991124    0.811218
 H      7.410413   -3.333996   -1.568247
 C     -1.263681   -2.074380   -2.289897
 C     -0.864770   -2.312720   -1.068481
 H     -0.586482   -2.212833   -3.127974
 H     -2.281928   -1.772744   -2.505121
 C     -0.482301   -2.535873    0.157915
 H     -0.642916   -3.550328    0.515334
 Cl     1.477376    0.083522    2.475841
 Cl     0.267006   -2.658069    2.936535
 O      0.426152   -0.263849   -0.122302
 O     -1.044363   -0.380094    1.759399
 C     -0.750528    1.648418    0.202161
 C     -1.906840    0.784897    0.004700
 C     -2.939247   -1.171612    0.825151
 C      1.601962    1.636141    0.051296
 C      1.684039    3.000583    0.339908
 C     -0.758140    2.983057    0.511166
 C      0.487393    3.630294    0.581653
 C     -2.863184    0.923404   -0.965816
 C     -3.889199   -0.037594   -0.996604
 C     -3.965990   -1.092320   -0.122094
 H      0.490827    4.681714    0.830828
 H     -4.645377    0.062707   -1.762140
 C     -5.041393   -2.165909   -0.131731
 F     -2.853181   -2.076160    1.703169
 N      0.429894    1.017670    0.030044
 N     -1.972373   -0.263764    0.852702
 F      2.601064    0.897431   -0.213070
 C      3.050630    3.657898    0.407028
 C      3.732240    3.530465   -0.958069
 C      2.928247    5.140220    0.759450
 C      3.873014    2.958962    1.493003
 H      3.142681    4.005394   -1.741423
 H      4.703488    4.021162   -0.936847
 H      3.897297    2.496773   -1.241032
 H      3.919574    5.587700    0.800987
 H      2.356644    5.694346    0.016308
 H      2.465858    5.293676    1.733175
 H      4.845926    3.437477    1.589548
 H      3.378198    3.015696    2.460752
 H      4.042989    1.912436    1.270330
 C     -4.376245   -3.526044   -0.360190
 C     -5.777191   -2.140760    1.211105
 C     -6.050532   -1.916451   -1.252441
 H     -3.698015   -3.793366    0.441630
 H     -5.134324   -4.304698   -0.418939
 H     -3.815087   -3.540857   -1.292422
 H     -5.120741   -2.363980    2.045051
 H     -6.237449   -1.170230    1.392847
 H     -6.571232   -2.885047    1.214441
 H     -5.586461   -1.941462   -2.237314
 H     -6.811198   -2.694735   -1.236986
 H     -6.565042   -0.963288   -1.139344
 C     -2.024375    3.744629    0.783835
 H     -2.219666    4.464302   -0.014732
 H     -2.878114    3.080637    0.871777
 H     -1.922470    4.300428    1.717274
 C     -2.832602    2.024378   -1.988101
 H     -3.010703    1.608565   -2.980725
 H     -3.618356    2.756171   -1.785492
 H     -1.875885    2.535751   -1.996214
