75

 Si     0.226881   -1.467708    1.275660
 O      1.529811   -2.380348    0.908924
 C      2.893106   -2.357288    1.060913
 C      3.531917   -1.682094   -0.118078
 H      3.156808   -1.805010    1.967196
 C      2.881424   -1.686982   -1.337048
 C      4.744245   -1.021245    0.006592
 C      3.408482   -1.002383   -2.417747
 H      1.946006   -2.213890   -1.426010
 C      5.286160   -0.345371   -1.074831
 H      5.262740   -1.023156    0.959028
 C      4.613336   -0.324709   -2.287881
 H      2.882816   -1.005660   -3.368181
 H      6.235544    0.171706   -0.967689
 H      5.033101    0.210661   -3.134972
 C      3.361982   -3.787792    1.208940
 C      2.785191   -4.413263    2.410118
 H      4.455591   -3.833903    1.274555
 H      3.049998   -4.350804    0.327464
 C      2.307305   -4.900087    3.398264
 H      1.901041   -5.347885    4.273258
 Cl     0.855440   -0.701713    3.035466
 Cl    -1.026157   -3.031996    1.042985
 O      0.502887   -0.590301   -0.168272
 O     -1.133998   -0.309238    1.465999
 C     -0.716215    1.320641   -0.450501
 C     -1.841191    0.409497   -0.593306
 C     -3.174475   -0.998098    0.748410
 C      1.547215    1.360983    0.213336
 C      1.578488    2.757058    0.229312
 C     -0.776043    2.691123   -0.444694
 C      0.403252    3.381259   -0.113115
 C     -2.700992    0.291471   -1.648052
 C     -3.823906   -0.539806   -1.464870
 C     -4.111458   -1.168578   -0.280820
 H      0.365029    4.461309   -0.101685
 H     -4.501981   -0.656043   -2.298241
 C     -5.326088   -2.044411   -0.025193
 F     -3.324450   -1.456369    1.916641
 N      0.442579    0.712919   -0.132244
 N     -2.060857   -0.308575    0.536013
 F      2.517372    0.618400    0.518831
 C      2.865620    3.455387    0.631999
 C      3.963903    3.062587   -0.359432
 C      2.692610    4.973683    0.606807
 C      3.234254    3.021784    2.053902
 H      3.705221    3.359209   -1.374978
 H      4.894409    3.563541   -0.100418
 H      4.158683    1.996963   -0.360070
 H      3.627481    5.450199    0.895509
 H      2.437720    5.343039   -0.385551
 H      1.930282    5.312738    1.306753
 H      4.132295    3.543375    2.378863
 H      2.440988    3.262769    2.760094
 H      3.433755    1.958783    2.123734
 C     -4.843965   -3.448413    0.351309
 C     -6.153786   -1.429798    1.107121
 C     -6.199627   -2.142888   -1.275701
 H     -4.254719   -3.454465    1.260781
 H     -5.698020   -4.103544    0.511009
 H     -4.239116   -3.884349   -0.442178
 H     -5.610036   -1.391572    2.044357
 H     -6.475360   -0.418742    0.859657
 H     -7.049018   -2.024846    1.276419
 H     -5.666619   -2.584128   -2.116535
 H     -7.057068   -2.780764   -1.070127
 H     -6.588125   -1.173571   -1.584905
 C     -2.038505    3.452791   -0.736137
 H     -2.025363    3.832528   -1.760792
 H     -2.918647    2.830603   -0.609658
 H     -2.118096    4.306762   -0.063302
 C     -2.478652    0.992653   -2.958360
 H     -2.500897    0.262288   -3.769422
 H     -3.269872    1.722331   -3.144297
 H     -1.519661    1.500747   -2.980926
