75

 Si    -0.764674   -2.231111   -0.802150
 O      0.889421   -1.867732    0.058777
 C      1.774860   -2.567802    0.510784
 C      2.873294   -2.009077    1.292853
 H      1.758056   -3.649186    0.355609
 C      2.690921   -0.774107    1.910477
 C      4.072743   -2.699000    1.433636
 C      3.710894   -0.218184    2.652789
 H      1.733759   -0.284183    1.816989
 C      5.105067   -2.131202    2.163935
 H      4.198772   -3.669740    0.964204
 C      4.922872   -0.895987    2.770070
 H      3.571525    0.736232    3.150876
 H      6.049606   -2.656802    2.269277
 H      5.730516   -0.458358    3.351846
 C      2.738283   -3.490545   -2.355981
 C      1.445579   -3.295701   -2.293326
 H      3.388304   -2.779148   -2.855799
 H      3.183195   -4.403019   -1.966451
 C      0.164204   -3.085533   -2.186935
 H     -0.448275   -3.475079   -2.997662
 Cl    -2.626206   -2.174559   -1.725802
 Cl    -1.068090   -3.884628    0.422000
 O     -1.187593   -1.178541    0.574318
 O     -0.458069   -0.617158   -1.565748
 C     -1.772867    0.936281   -0.020205
 C     -0.337266    1.137752   -0.140636
 C      1.555693    0.345105   -1.289887
 C     -3.369465   -0.653316    0.681113
 C     -4.431433    0.222023    0.419249
 C     -2.752705    1.844767   -0.315454
 C     -4.084042    1.445777   -0.091441
 C      0.414646    2.088602    0.504398
 C      1.777121    2.160528    0.176708
 C      2.380055    1.323964   -0.732915
 H     -4.864772    2.153062   -0.332041
 H      2.370719    2.920429    0.664279
 C      3.826202    1.422930   -1.191461
 F      1.956542   -0.536185   -2.105960
 N     -2.120269   -0.292969    0.417937
 N      0.265694    0.279554   -0.987368
 F     -3.509427   -1.804171    1.178437
 C     -5.850513   -0.253554    0.675165
 C     -6.004611   -0.585974    2.161846
 C     -6.863456    0.829687    0.305317
 C     -6.111553   -1.490435   -0.189230
 H     -5.792519    0.281132    2.786521
 H     -7.027300   -0.895205    2.368763
 H     -5.353346   -1.394686    2.473868
 H     -7.871145    0.465248    0.495711
 H     -6.732878    1.735471    0.895920
 H     -6.813220    1.096648   -0.749145
 H     -7.135457   -1.831710   -0.048717
 H     -5.979532   -1.267773   -1.246522
 H     -5.454428   -2.315265    0.059594
 C      4.550725    0.097145   -0.961869
 C      3.818963    1.771290   -2.684128
 C      4.565947    2.519852   -0.426095
 H      4.111251   -0.718896   -1.520303
 H      5.586997    0.184947   -1.281024
 H      4.554426   -0.173572    0.087118
 H      3.344788    0.998752   -3.281024
 H      3.299119    2.709917   -2.871510
 H      4.838457    1.884680   -3.047870
 H      4.593152    2.324164    0.644622
 H      5.597128    2.572818   -0.770285
 H      4.125880    3.503027   -0.584187
 C     -0.169101    3.027799    1.522777
 H     -0.245488    4.038068    1.114387
 H     -1.155143    2.706590    1.842310
 H      0.481122    3.071417    2.397790
 C     -2.461128    3.206804   -0.878573
 H     -3.108625    3.392149   -1.736814
 H     -2.662494    3.981664   -0.135025
 H     -1.429409    3.293820   -1.202726
