75

 Si     1.136102   -0.666663    1.719554
 O      0.883472   -1.861425    0.657405
 C      1.537946   -2.195824   -0.514884
 C      2.222848   -3.518561   -0.325842
 H      2.279617   -1.433756   -0.757955
 C      1.636978   -4.469446    0.493977
 C      3.418463   -3.807088   -0.968591
 C      2.241793   -5.700932    0.681642
 H      0.715258   -4.230093    1.002615
 C      4.025557   -5.041399   -0.788244
 H      3.881467   -3.066139   -1.611912
 C      3.438643   -5.989708    0.037554
 H      1.779509   -6.436794    1.333027
 H      4.962275   -5.260999   -1.292729
 H      3.915384   -6.955212    0.181706
 C      0.528078   -2.270560   -1.637753
 C      0.068990   -0.959047   -2.120103
 H      0.963511   -2.792033   -2.497789
 H     -0.322423   -2.857375   -1.295154
 C     -0.268431    0.100380   -2.573527
 H     -0.568438    1.020311   -3.007953
 Cl     2.826436    0.341140    2.140537
 Cl     1.126165   -1.824168    3.396113
 O      0.934120    0.337031    0.209968
 O     -0.367346    0.036725    2.104260
 C     -0.536765    2.041463    0.511578
 C     -1.510827    0.972077    0.364949
 C     -1.886520   -1.260500    1.040722
 C      1.742864    2.441664    0.078739
 C      1.593359    3.817335    0.301450
 C     -0.766475    3.367108    0.759458
 C      0.339513    4.233902    0.671591
 C     -2.515622    0.896512   -0.562652
 C     -3.217670   -0.319508   -0.644206
 C     -2.930815   -1.419085    0.125460
 H      0.174108    5.280896    0.881438
 H     -4.013806   -0.388237   -1.371927
 C     -3.673334   -2.745300    0.079995
 F     -1.491309   -2.155588    1.831576
 N      0.728263    1.610658    0.273408
 N     -1.255434   -0.098824    1.140246
 F      2.819163    1.907973   -0.324678
 C      2.807670    4.717723    0.154283
 C      3.307600    4.646197   -1.291397
 C      2.454516    6.168781    0.481085
 C      3.888910    4.242529    1.129488
 H      2.534686    4.956040   -1.993868
 H      4.156136    5.314466   -1.424060
 H      3.634645    3.650078   -1.567784
 H      3.340294    6.791655    0.372271
 H      1.696255    6.569870   -0.189916
 H      2.103932    6.286390    1.505290
 H      4.760750    4.890289    1.063003
 H      3.534279    4.274579    2.158601
 H      4.218977    3.231221    0.921324
 C     -2.690711   -3.863690   -0.272069
 C     -4.303597   -2.994715    1.454057
 C     -4.779963   -2.713486   -0.973896
 H     -1.875483   -3.940741    0.438125
 H     -3.208001   -4.821028   -0.278692
 H     -2.265921   -3.717724   -1.262850
 H     -3.560009   -3.098105    2.236783
 H     -4.980062   -2.187838    1.732933
 H     -4.884263   -3.914781    1.434748
 H     -4.389216   -2.539887   -1.975434
 H     -5.292327   -3.673531   -0.990951
 H     -5.530298   -1.953669   -0.760384
 C     -2.121289    3.899441    1.131565
 H     -2.494487    4.579367    0.362565
 H     -2.839680    3.098317    1.273000
 H     -2.044690    4.461470    2.064429
 C     -2.867334    2.027452   -1.486429
 H     -3.103447    1.637453   -2.475909
 H     -3.749328    2.556207   -1.115929
 H     -2.053212    2.738761   -1.577052
