69

 Si     0.299729    1.365705   -1.293564
 O     -0.407071    2.154261   -0.083466
 C     -1.133384    3.340687    0.017170
 C     -2.561587    2.980981    0.291714
 H     -1.077227    3.883363   -0.927454
 C     -2.890895    2.307468    1.458290
 C     -3.550522    3.251027   -0.641538
 C     -4.196561    1.918083    1.700496
 H     -2.117509    2.085826    2.181148
 C     -4.860667    2.857778   -0.407777
 H     -3.297726    3.768483   -1.559769
 C     -5.186335    2.193182    0.764795
 H     -4.444556    1.400688    2.622474
 H     -5.629111    3.078160   -1.143210
 H     -6.212982    1.891489    0.952038
 C     -0.498677    4.172525    1.106145
 C      0.877172    4.558050    0.749351
 H     -1.084009    5.083382    1.282257
 H     -0.477138    3.597385    2.032206
 C      1.994007    4.867585    0.434846
 H      2.974922    5.168537    0.155845
 Cl    -0.725856    2.188996   -2.874417
 Cl     2.147002    1.764249   -2.009543
 O      0.939076    0.395828    0.095197
 O     -0.211678   -0.188249   -1.807879
 C      1.694494   -1.607952   -0.616578
 C      0.296425   -2.006631   -0.552313
 C     -1.946804   -1.278889   -0.816212
 C      3.182625    0.044318    0.204394
 C      4.293674   -0.720181   -0.169240
 C      2.743346   -2.411448   -0.968958
 C      4.032739   -1.933659   -0.778001
 C     -0.129914   -3.146098    0.074716
 C     -1.492957   -3.349525    0.232261
 C     -2.434998   -2.428042   -0.185060
 H      2.557486   -3.390847   -1.391320
 H      4.853403   -2.561130   -1.092693
 H      0.593697   -3.850756    0.463717
 H     -1.812285   -4.254186    0.728720
 C     -3.929731   -2.674088    0.031703
 Cl    -2.854448    0.002785   -1.358892
 N      1.952262   -0.389152   -0.111863
 N     -0.622158   -1.144485   -1.008820
 Cl     3.206059    1.476629    1.062030
 C      5.727289   -0.238802    0.051217
 C      5.928473    1.090480   -0.683062
 C      6.006627   -0.108082    1.551510
 C      6.738008   -1.237090   -0.521233
 H      5.296577    1.881759   -0.298448
 H      6.961490    1.415970   -0.577972
 H      5.722750    0.984247   -1.746871
 H      7.043721    0.182452    1.707187
 H      5.384129    0.638622    2.030373
 H      5.850919   -1.057120    2.063057
 H      7.744339   -0.854528   -0.363482
 H      6.689641   -2.208590   -0.032419
 H      6.619292   -1.382758   -1.593439
 C     -4.495417   -1.592198    0.954730
 C     -4.647246   -2.697533   -1.321479
 C     -4.171734   -4.029352    0.702971
 H     -3.980985   -1.589170    1.914340
 H     -4.421529   -0.598683    0.531935
 H     -5.548123   -1.788386    1.147660
 H     -4.597675   -1.747497   -1.840133
 H     -4.228233   -3.461817   -1.974561
 H     -5.699264   -2.933032   -1.174001
 H     -3.722200   -4.092945    1.692316
 H     -5.242137   -4.174885    0.833149
 H     -3.810046   -4.863193    0.103711
