69

 Si    -0.200041   -1.947411   -0.147879
 O      1.227909   -1.363250    0.321767
 C      2.193925   -1.755085    1.233583
 C      3.431938   -2.098836    0.459969
 H      1.842305   -2.644768    1.761971
 C      3.262613   -2.840545   -0.702264
 C      4.708599   -1.719699    0.839142
 C      4.347256   -3.181948   -1.487630
 H      2.270221   -3.151983   -0.989080
 C      5.803734   -2.062849    0.056813
 H      4.867105   -1.157314    1.749896
 C      5.626109   -2.788192   -1.110158
 H      4.196561   -3.761759   -2.393516
 H      6.800118   -1.759055    0.365265
 H      6.482498   -3.054077   -1.723357
 C      2.340375   -0.637910    2.235738
 C      1.038619   -0.290093    2.822590
 H      3.021445   -0.926746    3.043535
 H      2.755023    0.244080    1.754428
 C     -0.030583   -0.017410    3.294134
 H     -0.966484    0.213632    3.740149
 Cl    -0.632203   -2.810750   -1.915262
 Cl    -0.260658   -3.640777    0.993661
 O     -1.410985   -1.231957    0.810367
 O     -0.331297   -0.413109   -1.066735
 C     -2.144731    0.813706    0.194540
 C     -0.771693    1.272344    0.346938
 C      1.358054    1.063027   -0.669517
 C     -3.545021   -1.097312    0.030017
 C     -4.629291   -0.314110   -0.381924
 C     -3.179726    1.626597   -0.177778
 C     -4.410761    1.048372   -0.457114
 C     -0.353182    2.351102    1.072049
 C      0.962791    2.765910    0.926942
 C      1.836923    2.175689    0.033822
 H     -3.018566    2.691553   -0.285118
 H     -5.213398    1.702030   -0.765928
 H     -1.041441    2.866288    1.729847
 H      1.287844    3.614925    1.510030
 C      3.228167    2.768367   -0.209616
 Cl     2.174450    0.237569   -1.859693
 N     -2.372728   -0.501799    0.305048
 N      0.110528    0.638055   -0.439305
 Cl    -3.542163   -2.749874    0.232907
 C     -5.990357   -0.917169   -0.736369
 C     -5.828056   -1.881812   -1.915491
 C     -6.580250   -1.615876    0.492612
 C     -6.978448    0.171686   -1.165286
 H     -5.199031   -2.732240   -1.680100
 H     -6.801881   -2.268591   -2.209127
 H     -5.400838   -1.375504   -2.779915
 H     -7.572819   -1.994770    0.257492
 H     -5.983348   -2.457048    0.825401
 H     -6.682492   -0.922783    1.326666
 H     -7.931379   -0.291088   -1.413563
 H     -7.175054    0.893691   -0.374585
 H     -6.648343    0.709981   -2.052013
 C      4.320336    1.730403    0.050713
 C      3.290030    3.293934   -1.648453
 C      3.495701    3.950982    0.726851
 H      4.344308    1.443363    1.098568
 H      4.204516    0.832565   -0.541345
 H      5.291755    2.157058   -0.190046
 H      3.198912    2.504109   -2.384957
 H      2.502774    4.023114   -1.834468
 H      4.242995    3.791391   -1.817688
 H      3.449956    3.670095    1.777653
 H      4.499465    4.328939    0.543079
 H      2.811391    4.780939    0.561102
