69

 Si    -0.770626   -2.070133   -0.857621
 O      0.839524   -2.024739   -0.739610
 C      1.764022   -2.728298    0.020869
 C      2.096261   -1.847036    1.191997
 H      1.296460   -3.639806    0.396421
 C      1.068338   -1.573044    2.084644
 C      3.335270   -1.268514    1.398587
 C      1.266267   -0.721801    3.154429
 H      0.108778   -2.039529    1.934852
 C      3.545967   -0.416953    2.475387
 H      4.155146   -1.486881    0.729967
 C      2.511192   -0.135928    3.352533
 H      0.451516   -0.523759    3.844601
 H      4.527137    0.023455    2.628212
 H      2.675211    0.529687    4.195488
 C      2.908109   -3.114858   -0.875612
 C      2.421771   -3.931091   -1.997505
 H      3.384971   -2.223661   -1.277243
 H      3.660507   -3.683392   -0.316386
 C      1.996499   -4.587896   -2.907532
 H      1.635947   -5.182712   -3.713010
 Cl    -1.868779   -2.369151   -2.515206
 Cl    -1.124663   -3.876150    0.034423
 O     -1.410428   -1.280243    0.511297
 O     -0.610368   -0.391047   -1.463829
 C     -1.472390    0.975360    0.490182
 C     -0.037720    0.948852    0.245190
 C      1.520627    0.408124   -1.455124
 C     -3.467029   -0.314303    0.476716
 C     -4.257608    0.836220    0.571141
 C     -2.198794    2.128826    0.608809
 C     -3.583477    2.040269    0.653618
 C      0.912780    1.648812    0.932287
 C      2.190308    1.713579    0.399675
 C      2.520815    1.151838   -0.819609
 H     -1.693574    3.085875    0.626765
 H     -4.142624    2.961258    0.731203
 H      0.655800    2.155589    1.852944
 H      2.931816    2.275210    0.946411
 C      3.881248    1.434411   -1.465195
 Cl     1.641282   -0.320086   -2.946608
 N     -2.129687   -0.190795    0.456177
 N      0.317385    0.308359   -0.877579
 Cl    -4.012632   -1.885744    0.389792
 C     -5.786810    0.783474    0.582843
 C     -6.284533    0.164834   -0.727417
 C     -6.265533   -0.009075    1.803164
 C     -6.384028    2.190225    0.684168
 H     -5.971258   -0.865105   -0.852030
 H     -7.372401    0.179118   -0.749579
 H     -5.930539    0.731308   -1.587605
 H     -7.352907    0.001014    1.842979
 H     -5.952481   -1.046435    1.780609
 H     -5.899183    0.434855    2.727915
 H     -7.469553    2.116018    0.686604
 H     -6.100539    2.700053    1.603330
 H     -6.112638    2.821324   -0.160272
 C      4.623586    0.147746   -1.823843
 C      3.642193    2.294898   -2.712129
 C      4.786517    2.225183   -0.515690
 H      4.832980   -0.444149   -0.937780
 H      4.083756   -0.472734   -2.527247
 H      5.578838    0.397923   -2.280641
 H      3.062403    1.776164   -3.467486
 H      3.121732    3.217739   -2.460094
 H      4.595162    2.569008   -3.160553
 H      4.981734    1.690100    0.411563
 H      5.748091    2.391953   -0.996963
 H      4.384853    3.206386   -0.270792
