69

 Si    -0.683292   -1.886256   -1.259951
 O      0.922323   -1.811127   -1.102556
 C      1.861759   -2.619693   -0.476357
 C      2.147136   -1.974321    0.850523
 H      1.422214   -3.601783   -0.295479
 C      1.098243   -1.912961    1.758604
 C      3.362092   -1.408021    1.190704
 C      1.251788   -1.281839    2.977763
 H      0.157815   -2.371528    1.501573
 C      3.528122   -0.777095    2.416843
 H      4.198080   -1.465256    0.508946
 C      2.472509   -0.706496    3.311166
 H      0.421540   -1.249121    3.677046
 H      4.490910   -0.343603    2.672078
 H      2.601673   -0.213753    4.270875
 C      3.030245   -2.785027   -1.408860
 C      2.587594   -3.380479   -2.678026
 H      3.795280   -3.427426   -0.957088
 H      3.479447   -1.816956   -1.618504
 C      2.197579   -3.859263   -3.707130
 H      1.868745   -4.295765   -4.620329
 Cl    -1.747824   -1.891449   -2.965822
 Cl    -0.983298   -3.842628   -0.744873
 O     -1.369454   -1.401121    0.223722
 O     -0.576790   -0.116581   -1.523648
 C     -1.513534    0.811587    0.641661
 C     -0.075689    0.880931    0.425145
 C      1.523674    0.734925   -1.316363
 C     -3.459398   -0.516050    0.336666
 C     -4.292623    0.566977    0.637518
 C     -2.283016    1.895007    0.967485
 C     -3.664044    1.753465    0.966232
 C      0.839829    1.463090    1.254851
 C      2.121141    1.672712    0.770887
 C      2.487747    1.372271   -0.527895
 H     -1.813310    2.846333    1.181648
 H     -4.257484    2.622508    1.210108
 H      0.552482    1.770576    2.251520
 H      2.834839    2.139786    1.431689
 C      3.845291    1.820845   -1.078591
 Cl     1.690350    0.317090   -2.918550
 N     -2.127343   -0.346586    0.367789
 N      0.317101    0.485061   -0.793836
 Cl    -3.946042   -2.057421   -0.065810
 C     -5.818897    0.462147    0.608075
 C     -6.276617    0.094743   -0.807110
 C     -6.284187   -0.568789    1.641175
 C     -6.468369    1.801466    0.969097
 H     -5.924328   -0.880096   -1.123354
 H     -7.363896    0.076786   -0.847608
 H     -5.932318    0.829544   -1.533499
 H     -7.371630   -0.602845    1.660494
 H     -5.933072   -1.570729    1.423328
 H     -5.946372   -0.301753    2.641679
 H     -7.550386    1.692037    0.935422
 H     -6.215668    2.131413    1.975284
 H     -6.209219    2.593725    0.268968
 C      4.638923    0.654402   -1.665828
 C      3.591425    2.899810   -2.138757
 C      4.708275    2.440983    0.024636
 H      4.858197   -0.091515   -0.907644
 H      4.130917    0.165225   -2.486709
 H      5.590102    1.020613   -2.046438
 H      3.041592    2.519436   -2.992420
 H      3.033765    3.737492   -1.722419
 H      4.539643    3.288242   -2.505299
 H      4.911369    1.741859    0.833465
 H      5.669066    2.731045   -0.395847
 H      4.267275    3.341201    0.447935
