69

 Si    -0.473078    1.687600    1.842448
 O      0.245566    2.678946    0.784274
 C      0.012356    2.999726   -0.545594
 C      0.556782    1.913740   -1.423719
 H     -1.061131    3.076395   -0.716852
 C      1.871724    1.511712   -1.279033
 C     -0.256535    1.259827   -2.333840
 C      2.372450    0.469047   -2.039440
 H      2.505338    2.028488   -0.573436
 C      0.229119    0.198541   -3.078187
 H     -1.284499    1.572050   -2.452212
 C      1.549632   -0.200002   -2.933328
 H      3.411367    0.181043   -1.942222
 H     -0.422115   -0.311137   -3.782922
 H      1.941101   -1.020430   -3.528071
 C      0.648562    4.345292   -0.804471
 C      0.000694    5.395597   -0.002737
 H      0.572152    4.607837   -1.867048
 H      1.706358    4.293403   -0.542482
 C     -0.547463    6.235612    0.656950
 H     -1.022782    6.993718    1.232907
 Cl     0.260096    2.626676    3.496259
 Cl    -2.396818    1.630828    2.451736
 O     -0.882671    0.785843    0.331168
 O      0.309446    0.212433    2.217166
 C     -0.970090   -1.431138    0.578913
 C      0.482764   -1.360390    0.594190
 C      2.397691   -0.230415    1.418852
 C     -2.907322   -0.199223    0.010356
 C     -3.713795   -1.334702    0.141644
 C     -1.702517   -2.583493    0.676792
 C     -3.075823   -2.509070    0.498312
 C      1.276599   -2.182656   -0.157239
 C      2.652057   -2.030582   -0.087581
 C      3.254108   -1.065527    0.696802
 H     -1.209333   -3.520627    0.901229
 H     -3.649917   -3.416068    0.615561
 H      0.824813   -2.928850   -0.797212
 H      3.261327   -2.695030   -0.682309
 C      4.779720   -0.967636    0.797011
 Cl     2.868272    1.019233    2.406209
 N     -1.604330   -0.277479    0.322019
 N      1.066546   -0.422694    1.352878
 Cl    -3.400050    1.286768   -0.574814
 C     -5.226817   -1.293784   -0.073638
 C     -5.844350   -0.271873    0.886369
 C     -5.535954   -0.960954   -1.536419
 C     -5.863088   -2.652948    0.233882
 H     -5.500963    0.739008    0.702873
 H     -6.927054   -0.273488    0.778182
 H     -5.616424   -0.520891    1.921483
 H     -6.611297   -0.993960   -1.699958
 H     -5.194093    0.026310   -1.824064
 H     -5.079231   -1.686593   -2.208280
 H     -6.940058   -2.580074    0.097223
 H     -5.513067   -3.439352   -0.432431
 H     -5.694776   -2.969004    1.261817
 C      5.274825    0.415219    0.366176
 C      5.195278   -1.282369    2.238724
 C      5.453666   -1.996490   -0.116214
 H      4.985329    0.638099   -0.657465
 H      4.909025    1.213601    0.999605
 H      6.361684    0.438565    0.411261
 H      4.812883   -0.559022    2.950107
 H      4.848687   -2.269565    2.541196
 H      6.280427   -1.276937    2.318820
 H      5.211360   -1.843720   -1.166486
 H      6.533463   -1.901356   -0.022833
 H      5.204174   -3.021626    0.151145
