69

 Si     0.668208   -0.569761    1.943767
 O      0.780035   -1.855674    0.978621
 C      1.275585   -2.158496   -0.274448
 C      2.169616   -3.359614   -0.163678
 H      1.848902   -1.320380   -0.667372
 C      1.915703   -4.307900    0.813424
 C      3.234863   -3.539225   -1.036023
 C      2.723327   -5.427795    0.928771
 H      1.093081   -4.152747    1.496114
 C      4.042931   -4.661188   -0.927928
 H      3.435820   -2.801433   -1.805659
 C      3.788716   -5.607176    0.055575
 H      2.520549   -6.162087    1.702949
 H      4.875116   -4.795774   -1.613197
 H      4.422465   -6.485264    0.142641
 C      0.109814   -2.435560   -1.201909
 C     -0.521146   -1.218546   -1.738390
 H      0.441445   -3.021535   -2.066066
 H     -0.624058   -3.029963   -0.658607
 C     -0.994277   -0.241228   -2.251777
 H     -1.411642    0.598676   -2.747101
 Cl     2.153021    0.610293    2.636134
 Cl     0.433708   -1.660858    3.656493
 O      0.604267    0.326485    0.378740
 O     -0.878252    0.129642    2.133815
 C     -0.547418    2.248826    0.593374
 C     -1.722081    1.400238    0.467994
 C     -2.596778   -0.756223    0.917690
 C      1.771915    2.257543    0.117317
 C      1.840267    3.644089    0.288470
 C     -0.547561    3.609636    0.731662
 C      0.660526    4.283828    0.622698
 C     -2.751844    1.658934   -0.393550
 C     -3.704033    0.672813   -0.604161
 C     -3.636759   -0.566444    0.002347
 H     -1.474872    4.132775    0.928376
 H      0.655819    5.353380    0.771558
 H     -2.782202    2.596547   -0.933343
 H     -4.500172    0.883889   -1.302947
 C     -4.654239   -1.661307   -0.324438
 Cl    -2.332902   -2.119641    1.830288
 N      0.619154    1.619109    0.369133
 N     -1.715110    0.234891    1.126501
 Cl     3.001874    1.271330   -0.439101
 C      3.147430    4.423091    0.143325
 C      4.176606    3.866587    1.132239
 C      3.644472    4.340419   -1.303077
 C      2.944994    5.904104    0.477792
 H      4.436676    2.834202    0.932232
 H      5.093056    4.450579    1.076708
 H      3.808503    3.927522    2.155019
 H      4.543490    4.943039   -1.416396
 H      3.891117    3.329372   -1.605351
 H      2.899346    4.728735   -1.996285
 H      3.897162    6.422587    0.385920
 H      2.251338    6.395787   -0.201939
 H      2.597941    6.057422    1.498065
 C     -3.918947   -2.876533   -0.897384
 C     -5.455095   -2.018283    0.931266
 C     -5.649129   -1.185284   -1.387253
 H     -3.328573   -2.600335   -1.768903
 H     -3.258194   -3.344445   -0.177478
 H     -4.641047   -3.627814   -1.210769
 H     -4.837932   -2.432662    1.719895
 H     -5.969658   -1.144558    1.328989
 H     -6.211273   -2.760968    0.684618
 H     -5.163644   -0.927742   -2.326892
 H     -6.350174   -1.988949   -1.602937
 H     -6.239846   -0.332980   -1.056161
