69

 Si    -0.406856   -1.924513   -0.056093
 O      1.103544   -1.475962    0.288321
 C      2.083385   -1.925630    1.157574
 C      3.232993   -2.415576    0.328145
 H      1.683158   -2.757761    1.742170
 C      2.922471   -3.170890   -0.795495
 C      4.561325   -2.156527    0.621534
 C      3.919581   -3.644282   -1.627180
 H      1.888809   -3.387970   -1.015769
 C      5.568730   -2.632506   -0.207593
 H      4.828515   -1.585556    1.501038
 C      5.251294   -3.371353   -1.335875
 H      3.658655   -4.232973   -2.501762
 H      6.606879   -2.422298    0.033820
 H      6.039351   -3.741721   -1.985404
 C      2.398144   -0.792871    2.101970
 C      1.176749   -0.303879    2.756919
 H      3.103092   -1.116314    2.875320
 H      2.857976    0.028787    1.558836
 C      0.172153    0.083998    3.286274
 H     -0.706413    0.416871    3.781766
 Cl    -1.042223   -2.801374   -1.754075
 Cl    -0.555366   -3.561702    1.157035
 O     -1.471058   -1.057493    0.949491
 O     -0.450768   -0.417038   -1.026558
 C     -2.033218    1.034048    0.307398
 C     -0.613032    1.350664    0.346019
 C      1.403347    0.888296   -0.808853
 C     -3.628539   -0.725161    0.305972
 C     -4.653813    0.154043   -0.060654
 C     -3.003963    1.939000   -0.023517
 C     -4.303928    1.483873   -0.198724
 C     -0.034594    2.403187    0.995923
 C      1.302112    2.674261    0.741929
 C      2.043248    1.967439   -0.186086
 H     -2.743277    2.977816   -0.180131
 H     -5.055765    2.208006   -0.476658
 H     -0.616453    3.007970    1.679666
 H      1.753755    3.503545    1.266142
 C      3.466280    2.402272   -0.548707
 Cl     2.041626   -0.055887   -2.019376
 N     -2.385581   -0.246717    0.481074
 N      0.139573    0.603132   -0.474820
 Cl    -3.778904   -2.362732    0.566875
 C     -6.090523   -0.314546   -0.301947
 C     -6.109187   -1.321557   -1.456319
 C     -6.660429   -0.915931    0.986440
 C     -6.991062    0.858804   -0.699842
 H     -5.552625   -2.224968   -1.236060
 H     -7.134902   -1.615512   -1.670187
 H     -5.696355   -0.884556   -2.364462
 H     -7.700835   -1.194536    0.831686
 H     -6.131005   -1.806027    1.305740
 H     -6.631700   -0.194603    1.802131
 H     -8.001178    0.490519   -0.866757
 H     -7.056474    1.618214    0.077460
 H     -6.671725    1.335985   -1.624657
 C      4.461684    1.263617   -0.324324
 C      3.476454    2.872535   -2.007867
 C      3.921413    3.579277    0.320104
 H      4.526143    1.003072    0.728686
 H      4.215857    0.367399   -0.877802
 H      5.453471    1.580465   -0.639964
 H      3.248139    2.074312   -2.704476
 H      2.758307    3.675865   -2.166144
 H      4.461044    3.259407   -2.263030
 H      3.925318    3.337635    1.381604
 H      4.942162    3.844029    0.051537
 H      3.315008    4.470584    0.170571
