75

 Si     0.327277    1.871408   -1.547525
 O     -0.779670    2.314336   -0.476200
 C     -1.948472    2.994084   -0.246242
 C     -2.767709    2.180588    0.721329
 H     -2.493139    3.137438   -1.185849
 C     -2.145175    1.174295    1.440068
 C     -4.105902    2.462430    0.959367
 C     -2.848168    0.447262    2.387113
 H     -1.099148    0.990639    1.265527
 C     -4.810913    1.745969    1.914729
 H     -4.599953    3.250200    0.400469
 C     -4.184269    0.734605    2.630285
 H     -2.347050   -0.331178    2.954300
 H     -5.856539    1.977063    2.098435
 H     -4.736668    0.176593    3.381045
 C     -1.612928    4.341899    0.360316
 C     -0.709815    5.122724   -0.498503
 H     -2.526750    4.919710    0.539720
 H     -1.122491    4.178096    1.322063
 C      0.037840    5.744095   -1.202681
 H      0.693339    6.299899   -1.829485
 Cl    -0.525036    2.673987   -3.226739
 Cl     2.199253    2.501566   -1.971512
 O      0.941245    1.107011    0.005762
 O      0.122911    0.251186   -2.048438
 C      1.639253   -0.972078   -0.391766
 C      0.209259   -1.239901   -0.360856
 C     -1.859889   -0.681989   -1.383517
 C      3.169070    0.692052    0.314075
 C      4.251428   -0.169057    0.068078
 C      2.640255   -1.870724   -0.643193
 C      3.946395   -1.411811   -0.438912
 C     -0.403985   -2.090680    0.521156
 C     -1.785707   -2.239580    0.386300
 C     -2.539974   -1.593105   -0.565481
 H      4.747341   -2.099284   -0.661262
 H     -2.272445   -2.921859    1.065186
 C     -4.024267   -1.919205   -0.750911
 Cl    -2.538184    0.232112   -2.589497
 N      1.945086    0.287195   -0.028715
 N     -0.537977   -0.539985   -1.228935
 Cl     3.238142    2.184475    1.066511
 C      5.700479    0.252719    0.309499
 C      6.005758    1.503661   -0.520429
 C      5.927376    0.493801    1.804992
 C      6.676659   -0.840799   -0.134871
 H      5.404630    2.356956   -0.230384
 H      7.050289    1.782461   -0.396384
 H      5.837622    1.320065   -1.580385
 H      6.971789    0.742953    1.982478
 H      5.328108    1.308557    2.194316
 H      5.700564   -0.399980    2.385017
 H      7.695568   -0.497884    0.033208
 H      6.556878   -1.763559    0.430035
 H      6.590631   -1.070685   -1.195330
 C     -4.887573   -0.662956   -0.648882
 C     -4.194144   -2.601982   -2.112896
 C     -4.509343   -2.889584    0.329494
 H     -4.696056   -0.134497    0.276158
 H     -4.733939    0.025574   -1.468961
 H     -5.938171   -0.944282   -0.659526
 H     -3.908045   -1.957592   -2.937274
 H     -3.601982   -3.514119   -2.175203
 H     -5.236630   -2.877455   -2.260221
 H     -4.413696   -2.473032    1.330381
 H     -5.565024   -3.100089    0.171341
 H     -3.992735   -3.847093    0.300258
 C      0.350785   -2.846213    1.577487
 H      0.573645   -3.859852    1.236111
 H      1.284982   -2.353110    1.828552
 H     -0.255588   -2.921768    2.479698
 C      2.377922   -3.268286   -1.123815
 H      2.963469   -3.458502   -2.025099
 H      2.681129   -3.996203   -0.367823
 H      1.328771   -3.419703   -1.357158
