75

 Si     0.439125   -1.982904    1.761361
 O     -0.448875   -2.859083    0.728574
 C     -0.265827   -3.195050   -0.605511
 C     -0.829699   -2.113409   -1.476849
 H      0.799271   -3.283957   -0.814642
 C     -2.153756   -1.738228   -1.339239
 C     -0.029176   -1.452768   -2.394336
 C     -2.680090   -0.725500   -2.123879
 H     -2.776278   -2.254519   -0.622744
 C     -0.541959   -0.424539   -3.166625
 H      1.007108   -1.739725   -2.502049
 C     -1.874508   -0.061713   -3.037092
 H     -3.725397   -0.457464   -2.031131
 H      0.097135    0.084703   -3.882594
 H     -2.288562    0.728908   -3.656195
 C     -0.920961   -4.538020   -0.829427
 C     -0.246715   -5.584953   -0.044815
 H     -0.887228   -4.810369   -1.891617
 H     -1.967081   -4.478990   -0.525968
 C      0.325077   -6.419705    0.601353
 H      0.820817   -7.172728    1.166527
 Cl    -0.236565   -2.932479    3.436549
 Cl     2.398690   -2.113791    2.231681
 O      0.832080   -1.076863    0.242592
 O     -0.214884   -0.475071    2.232664
 C      1.052754    1.103214    0.636620
 C     -0.400626    1.071261    0.595453
 C     -2.321366    0.009742    1.503792
 C      2.902745   -0.190414   -0.078723
 C      3.777004    0.879507    0.165180
 C      1.844302    2.189060    0.902927
 C      3.216285    2.022637    0.688903
 C     -1.169274    1.836535   -0.243153
 C     -2.552932    1.692330   -0.129840
 C     -3.168111    0.821299    0.739287
 H      3.853413    2.861969    0.919264
 H     -3.161360    2.310595   -0.770605
 C     -4.692526    0.787670    0.882939
 Cl    -2.806344   -1.164114    2.572234
 N      1.620607   -0.058424    0.264599
 N     -0.996718    0.176779    1.400492
 Cl     3.293966   -1.638397   -0.817665
 C      5.280299    0.779998   -0.090117
 C      5.856312   -0.370754    0.741063
 C      5.540434    0.585710   -1.587027
 C      6.000080    2.061927    0.339319
 H      5.451653   -1.335537    0.459940
 H      6.935274   -0.417581    0.607761
 H      5.661586   -0.222177    1.801888
 H      6.612298    0.571006   -1.774440
 H      5.131958   -0.343188   -1.967266
 H      5.117371    1.404357   -2.167988
 H      7.066737    1.949502    0.156018
 H      5.672843    2.934116   -0.223897
 H      5.881810    2.270999    1.400935
 C     -5.251629   -0.602889    0.572869
 C     -5.052639    1.222434    2.308439
 C     -5.355782    1.772208   -0.084774
 H     -4.983252   -0.922790   -0.429991
 H     -4.913353   -1.360653    1.268367
 H     -6.337957   -0.574825    0.628381
 H     -4.667289    0.543047    3.060491
 H     -4.669943    2.218882    2.525005
 H     -6.134345    1.255508    2.422352
 H     -5.156109    1.530409   -1.127034
 H     -6.434779    1.731333    0.049225
 H     -5.055814    2.802937    0.094484
 C     -0.585668    2.794306   -1.240461
 H     -0.648439    3.819408   -0.867957
 H      0.452832    2.565863   -1.454169
 H     -1.149858    2.739069   -2.170097
 C      1.297388    3.490123    1.414179
 H      1.855151    3.792724    2.302110
 H      1.410785    4.276124    0.664302
 H      0.248484    3.405375    1.679799
