75

 Si     0.905893   -0.760186    1.892924
 O      1.037614   -2.059871    0.947410
 C      1.593883   -2.362467   -0.279627
 C      2.556868   -3.502416   -0.110166
 H      2.126870   -1.499299   -0.675931
 C      2.341691   -4.431074    0.894471
 C      3.648593   -3.645353   -0.956259
 C      3.213700   -5.494560    1.063357
 H      1.497890   -4.303654    1.556574
 C      4.521261   -4.710960   -0.794611
 H      3.819854   -2.922430   -1.746902
 C      4.305397   -5.637328    0.216458
 H      3.040579   -6.213281    1.859035
 H      5.373864   -4.816787   -1.459513
 H      4.989647   -6.471217    0.345543
 C      0.478722   -2.732782   -1.235614
 C     -0.209628   -1.566925   -1.813091
 H      0.873463   -3.312603   -2.077122
 H     -0.232503   -3.362514   -0.701893
 C     -0.721649   -0.626896   -2.357515
 H     -1.171199    0.182726   -2.873636
 Cl     2.365900    0.490228    2.511335
 Cl     0.793171   -1.825013    3.637271
 O      0.756425    0.099496    0.311210
 O     -0.669491   -0.144642    2.126047
 C     -0.501653    1.935567    0.616783
 C     -1.598369    1.000425    0.421786
 C     -2.302514   -1.208324    0.938455
 C      1.795124    2.101674    0.052143
 C      1.784688    3.481175    0.309546
 C     -0.580811    3.270325    0.908447
 C      0.601891    4.006765    0.776828
 C     -2.572854    1.134069   -0.535701
 C     -3.424152    0.043482   -0.715800
 C     -3.312671   -1.143260   -0.028172
 H      0.554618    5.055722    1.023951
 H     -4.187154    0.137685   -1.472093
 C     -4.241841   -2.320468   -0.328487
 Cl    -1.973759   -2.503081    1.926039
 N      0.696589    1.393084    0.314825
 N     -1.520420   -0.139210    1.123750
 Cl     3.060224    1.220329   -0.594437
 C      3.026794    4.353677    0.136489
 C      4.143485    3.824346    1.041651
 C      3.447926    4.368561   -1.336136
 C      2.747177    5.801643    0.549752
 H      4.459181    2.822521    0.776671
 H      5.015090    4.471739    0.968545
 H      3.828710    3.811503    2.083753
 H      4.300927    5.031405   -1.467456
 H      3.738509    3.389910   -1.699657
 H      2.643678    4.739787   -1.970217
 H      3.653239    6.390082    0.420170
 H      1.976461    6.269191   -0.060564
 H      2.460467    5.888938    1.596109
 C     -3.407978   -3.511408   -0.809485
 C     -5.060427   -2.665137    0.919353
 C     -5.229414   -1.971758   -1.445959
 H     -2.813463   -3.244172   -1.680901
 H     -2.737463   -3.888668   -0.046594
 H     -4.066569   -4.329013   -1.095724
 H     -4.444588   -2.994273    1.748084
 H     -5.645889   -1.809170    1.252415
 H     -5.756460   -3.469829    0.690711
 H     -4.730848   -1.736662   -2.384520
 H     -5.870198   -2.830677   -1.634603
 H     -5.883420   -1.142282   -1.182724
 C     -2.709278    2.356183   -1.397817
 H     -3.381147    3.079354   -0.930543
 H     -1.749250    2.836679   -1.562445
 H     -3.132168    2.083544   -2.363480
 C     -1.848978    3.926715    1.371736
 H     -1.668026    4.418415    2.329739
 H     -2.173057    4.689820    0.661137
 H     -2.646769    3.202885    1.504896
