75

 Si     0.008666   -1.590877    1.075895
 O      1.535010   -2.435363    0.496131
 C      1.931479   -2.808550   -0.596403
 C      3.275540   -3.306383   -0.827042
 H      1.260579   -2.762489   -1.457736
 C      4.174597   -3.378841    0.237470
 C      3.659703   -3.707298   -2.105758
 C      5.453052   -3.847175    0.023925
 H      3.847193   -3.058622    1.218071
 C      4.944389   -4.177972   -2.319182
 H      2.951659   -3.649959   -2.926708
 C      5.835369   -4.246741   -1.256157
 H      6.158202   -3.906584    0.847369
 H      5.252418   -4.492490   -3.311800
 H      6.844142   -4.616872   -1.424024
 C      3.619294   -0.899676    2.778187
 C      2.366964   -0.697323    2.465304
 H      4.422994   -0.399715    2.247605
 H      3.874037   -1.558152    3.604726
 C      1.113167   -0.504573    2.157469
 H      0.628847    0.294740    2.710483
 Cl    -1.143702   -2.671689   -0.344895
 Cl    -0.289944   -3.010065    2.562514
 O     -1.310460   -0.511899    1.562839
 O      0.228831   -0.484157   -0.352188
 C     -1.970901    0.751052   -0.157547
 C     -0.736312    1.473712    0.118840
 C      1.614758    1.318218   -0.095272
 C     -3.378738   -0.955115    0.700361
 C     -4.306937   -0.737181   -0.328343
 C     -2.834964    1.022840   -1.183138
 C     -3.989311    0.236719   -1.246026
 C     -0.663144    2.778854    0.532571
 C      0.615113    3.326444    0.644427
 C      1.768325    2.650606    0.308918
 H     -4.667804    0.428628   -2.062264
 H      0.684181    4.347634    0.984168
 C      3.132894    3.336610    0.392240
 Cl     2.837675    0.322964   -0.655263
 N     -2.246046   -0.248537    0.695623
 N      0.392878    0.775699   -0.097460
 Cl    -3.543172   -2.009574    1.977626
 C     -5.587742   -1.560265   -0.458112
 C     -5.218082   -3.038002   -0.618631
 C     -6.482310   -1.327546    0.762944
 C     -6.386641   -1.148747   -1.698174
 H     -4.702102   -3.437236    0.245994
 H     -6.119502   -3.629863   -0.766134
 H     -4.577466   -3.187627   -1.485916
 H     -7.417198   -1.871636    0.642823
 H     -6.026395   -1.664484    1.686379
 H     -6.728727   -0.272087    0.872745
 H     -7.284126   -1.760671   -1.763162
 H     -6.713744   -0.111080   -1.660036
 H     -5.831746   -1.302226   -2.621931
 C      4.037762    2.564849    1.355656
 C      3.745934    3.429771   -1.008480
 C      3.003056    4.763836    0.933203
 H      3.583876    2.484884    2.341512
 H      4.258573    1.563661    1.009027
 H      4.985720    3.086833    1.470157
 H      3.939999    2.457523   -1.446145
 H      3.093936    3.980148   -1.685480
 H      4.693985    3.962176   -0.961186
 H      2.583587    4.792358    1.937187
 H      3.991975    5.214396    0.990148
 H      2.402233    5.403129    0.289046
 C     -2.576225    2.095990   -2.200796
 H     -2.823378    1.727168   -3.196657
 H     -3.203430    2.968563   -2.001618
 H     -1.536599    2.408208   -2.196050
 C     -1.885366    3.592111    0.848425
 H     -1.704136    4.202005    1.733638
 H     -2.119241    4.264656    0.019391
 H     -2.747000    2.958356    1.034676
