75

 Si    -0.043208    1.222624    2.329120
 O      0.538622    2.428468    1.419344
 C      0.970034    2.717842    0.142952
 C     -0.144032    2.581417   -0.846075
 H      1.759070    2.018294   -0.129508
 C     -1.284726    3.350578   -0.702695
 C     -0.071773    1.657299   -1.872930
 C     -2.346060    3.199668   -1.576171
 H     -1.343779    4.071498    0.100792
 C     -1.137200    1.486089   -2.741308
 H      0.825666    1.071321   -2.005056
 C     -2.277847    2.259541   -2.595545
 H     -3.230860    3.818726   -1.462577
 H     -1.071073    0.760315   -3.546822
 H     -3.110863    2.138513   -3.281905
 C      1.556864    4.110712    0.157239
 C      2.725088    4.219067    1.044359
 H      1.856508    4.407696   -0.855640
 H      0.792153    4.808257    0.500060
 C      3.682664    4.312827    1.762444
 H      4.533642    4.419958    2.391332
 Cl    -1.808277    0.903099    3.271203
 Cl     0.920813    1.851511    4.018367
 O     -0.790300    0.721414    0.761743
 O      0.833489   -0.237326    2.192820
 C     -0.650432   -1.496624    0.531294
 C      0.713792   -1.176655    0.146906
 C      2.682729   -0.055626    0.856397
 C     -2.756505   -0.438453    0.724654
 C     -3.394824   -1.683104    0.848147
 C     -1.200243   -2.744275    0.642963
 C     -2.584061   -2.794345    0.841345
 C      1.263973   -1.473620   -1.073545
 C      2.570267   -1.033362   -1.290761
 C      3.311642   -0.336096   -0.363582
 H     -3.027828   -3.770469    0.958699
 H      3.008468   -1.251583   -2.252052
 C      4.737385    0.123598   -0.676376
 Cl     3.348279    0.762368    2.133597
 N     -1.423764   -0.404324    0.677157
 N      1.419646   -0.463505    1.036340
 Cl    -3.508967    1.039973    0.570332
 C     -4.907526   -1.808099    1.024569
 C     -5.334409   -1.034557    2.275909
 C     -5.619544   -1.296369   -0.231306
 C     -5.321763   -3.268943    1.225490
 H     -5.140730    0.028390    2.198839
 H     -6.402432   -1.161440    2.441172
 H     -4.817779   -1.405474    3.159564
 H     -6.693996   -1.432826   -0.125470
 H     -5.441704   -0.243286   -0.414446
 H     -5.303593   -1.851129   -1.113954
 H     -6.400086   -3.317499    1.362749
 H     -5.084549   -3.893356    0.365923
 H     -4.869609   -3.712679    2.110617
 C      4.790407    1.654064   -0.656710
 C      5.713364   -0.493480    0.329987
 C      5.170896   -0.335007   -2.072119
 H      4.126534    2.076692   -1.408666
 H      4.518042    2.076954    0.301993
 H      5.799414    1.989183   -0.887538
 H      5.544057   -0.153487    1.344616
 H      5.649650   -1.580858    0.322346
 H      6.733050   -0.223326    0.063151
 H      4.549651    0.081869   -2.862743
 H      6.186905    0.007076   -2.258073
 H      5.178306   -1.419055   -2.172896
 C      0.507389   -2.206766   -2.143593
 H      0.667430   -3.283648   -2.054908
 H     -0.558800   -2.009692   -2.079054
 H      0.859520   -1.894936   -3.125698
 C     -0.383469   -4.002292    0.580124
 H     -0.591596   -4.613218    1.460371
 H     -0.647506   -4.588281   -0.303042
 H      0.680302   -3.787831    0.555737
