75

 Si     0.366117   -1.608568    2.122211
 O     -0.731916   -2.545175    1.387266
 C     -0.745713   -3.176292    0.151356
 C     -1.255360   -2.227824   -0.891660
 H      0.268343   -3.469032   -0.117266
 C     -2.493801   -1.632380   -0.735230
 C     -0.483275   -1.907646   -1.996402
 C     -2.966355   -0.739404   -1.682656
 H     -3.094755   -1.883910    0.126782
 C     -0.938789   -0.998688   -2.936011
 H      0.486734   -2.367609   -2.120467
 C     -2.187915   -0.415109   -2.783708
 H     -3.950046   -0.300728   -1.568867
 H     -0.322909   -0.757068   -3.797811
 H     -2.560159    0.282066   -3.528797
 C     -1.593849   -4.419393    0.286054
 C     -0.981299   -5.370304    1.227710
 H     -1.715693   -4.909396   -0.687918
 H     -2.582323   -4.137860    0.651616
 C     -0.457270   -6.129508    1.996015
 H     -0.006217   -6.815041    2.673381
 Cl    -0.242206   -2.070191    4.014850
 Cl     2.332360   -1.923471    2.458372
 O      0.702732   -1.115525    0.412657
 O     -0.030865    0.045846    2.292487
 C      1.250769    1.038999    0.286987
 C     -0.189691    1.221609    0.369579
 C     -2.122078    0.683931    1.641136
 C      2.823354   -0.644352   -0.262597
 C      3.852548    0.306482   -0.337139
 C      2.203205    2.022216    0.238319
 C      3.508919    1.606435   -0.042179
 C     -0.938120    1.900018   -0.557950
 C     -2.307192    1.997465   -0.306823
 C     -2.932563    1.435762    0.782679
 H      4.272348    2.368283   -0.058382
 H     -2.896164    2.550324   -1.021223
 C     -4.422421    1.669115    1.049814
 Cl    -2.636975   -0.148909    2.981431
 N      1.615787   -0.247988    0.141702
 N     -0.806269    0.619235    1.398785
 Cl     2.936959   -2.258995   -0.681671
 C      5.291927   -0.073816   -0.681057
 C      5.800232   -1.095593    0.340968
 C      5.356525   -0.619542   -2.110850
 C      6.217367    1.144597   -0.611236
 H      5.244244   -2.025061    0.317734
 H      6.842510   -1.333017    0.137613
 H      5.744097   -0.697295    1.352674
 H      6.389508   -0.838866   -2.373585
 H      4.788450   -1.533685   -2.237249
 H      4.984102    0.112140   -2.826812
 H      7.232875    0.834331   -0.848836
 H      5.946887    1.917082   -1.328965
 H      6.246592    1.589779    0.381593
 C     -5.192869    0.347879    1.105403
 C     -4.561002    2.444990    2.365075
 C     -5.051828    2.517893   -0.058786
 H     -5.088055   -0.210457    0.179395
 H     -4.878052   -0.292550    1.919693
 H     -6.251938    0.553874    1.246295
 H     -4.191543    1.886693    3.217968
 H     -4.024124    3.391667    2.322345
 H     -5.608912    2.670978    2.551865
 H     -5.002508    2.034436   -1.032696
 H     -6.105213    2.672655    0.165455
 H     -4.599502    3.504516   -0.139708
 C     -0.342920    2.522442   -1.787192
 H     -0.162803    3.588112   -1.628159
 H      0.595059    2.049465   -2.058831
 H     -1.035970    2.419238   -2.620225
 C      1.895095    3.469490    0.490402
 H      2.566181    3.852028    1.261630
 H      2.055175    4.060053   -0.414281
 H      0.872427    3.608123    0.825928
