75

 Si     0.069212   -2.167811   -0.015862
 O      1.478304   -1.497170    0.392541
 C      2.481769   -1.799672    1.297676
 C      3.721741   -2.103289    0.510746
 H      2.192474   -2.687915    1.864409
 C      3.572008   -2.908170   -0.611516
 C      4.980514   -1.629490    0.839026
 C      4.657175   -3.219030   -1.408577
 H      2.594012   -3.291562   -0.858189
 C      6.076630   -1.941780    0.045054
 H      5.124590   -1.016481    1.718940
 C      5.917525   -2.730485   -1.082742
 H      4.521996   -3.848571   -2.283164
 H      7.059010   -1.563368    0.313283
 H      6.774324   -2.971792   -1.705442
 C      2.581613   -0.641196    2.257473
 C      1.273193   -0.360852    2.865019
 H      3.299657   -0.857937    3.055692
 H      2.925627    0.247359    1.735097
 C      0.196353   -0.156171    3.352925
 H     -0.748485    0.013929    3.806634
 Cl    -0.379874   -3.174292   -1.703649
 Cl     0.108680   -3.782512    1.238349
 O     -1.161531   -1.436896    0.903959
 O     -0.118981   -0.717962   -1.055993
 C     -2.010588    0.462055    0.040564
 C     -0.677259    0.998697    0.267327
 C      1.476518    0.871543   -0.718402
 C     -3.271704   -1.554620    0.059754
 C     -4.363465   -0.910382   -0.536509
 C     -3.037509    1.150903   -0.555091
 C     -4.202360    0.427204   -0.821069
 C     -0.329492    2.081235    1.026532
 C      0.976825    2.553613    0.864667
 C      1.879539    2.028266   -0.030506
 H     -5.010942    0.960117   -1.296145
 H      1.258804    3.415348    1.449461
 C      3.223107    2.714954   -0.290562
 Cl     2.359699    0.056815   -1.867570
 N     -2.166010   -0.843685    0.307209
 N      0.256407    0.393112   -0.489461
 Cl    -3.191915   -3.155195    0.509212
 C     -5.662926   -1.641990   -0.876746
 C     -5.367991   -2.758157   -1.883992
 C     -6.297207   -2.188327    0.406130
 C     -6.677080   -0.693735   -1.523150
 H     -4.711006   -3.521679   -1.484328
 H     -6.296571   -3.245854   -2.174049
 H     -4.909195   -2.358928   -2.787401
 H     -7.248066   -2.662778    0.171923
 H     -5.678511   -2.929571    0.898326
 H     -6.496375   -1.387679    1.117359
 H     -7.587277   -1.246036   -1.747782
 H     -6.959533    0.127461   -0.866627
 H     -6.320068   -0.278064   -2.463713
 C      4.391058    1.770529   -0.005352
 C      3.244494    3.200594   -1.744704
 C      3.401100    3.941750    0.609368
 H      4.438072    1.514662    1.049726
 H      4.342878    0.851076   -0.573221
 H      5.327186    2.263167   -0.260031
 H      3.208772    2.384215   -2.456648
 H      2.406590    3.865535   -1.949530
 H      4.158707    3.759951   -1.933323
 H      3.388772    3.688248    1.667944
 H      4.368288    4.396040    0.403327
 H      2.648198    4.706760    0.428979
 C     -2.930457    2.598477   -0.940387
 H     -3.290502    3.235896   -0.129586
 H     -1.904300    2.873715   -1.165615
 H     -3.543856    2.793558   -1.818987
 C     -1.279788    2.751667    1.974582
 H     -0.811691    2.830375    2.956783
 H     -1.515650    3.762302    1.633689
 H     -2.203253    2.189959    2.075939
