75

 Si     0.050173   -1.222674    0.749346
 O      1.413886   -1.994482    0.283552
 C      2.535687   -2.630532    0.767738
 C      3.674454   -2.303990   -0.155958
 H      2.769150   -2.268048    1.773095
 C      3.447054   -2.322020   -1.524167
 C      4.927271   -1.953488    0.323844
 C      4.455751   -1.983889   -2.409669
 H      2.465417   -2.590315   -1.888063
 C      5.945318   -1.618114   -0.559621
 H      5.113712   -1.939893    1.392743
 C      5.710952   -1.629499   -1.926441
 H      4.265671   -1.999624   -3.479044
 H      6.924922   -1.346584   -0.175762
 H      6.506859   -1.366998   -2.617881
 C      2.287964   -4.123004    0.837523
 C      1.324626   -4.478846    1.893082
 H      3.226216   -4.652935    1.040176
 H      1.908002   -4.459119   -0.128032
 C      0.558049   -4.761562    2.773165
 H     -0.115213   -5.025264    3.552600
 Cl     0.593759   -0.848994    2.669101
 Cl    -1.196734   -2.694214    0.141842
 O      0.327859   -0.153230   -0.559444
 O     -1.279132   -0.087705    1.121402
 C     -0.828377    1.783118   -0.593317
 C     -2.027973    0.967540   -0.737300
 C     -3.430283   -0.534403    0.461281
 C      1.509476    1.753225   -0.134251
 C      1.537528    3.154056   -0.058196
 C     -0.842190    3.152012   -0.559389
 C      0.344948    3.819679   -0.291754
 C     -2.978084    1.129013   -1.707030
 C     -4.147845    0.385894   -1.612179
 C     -4.418533   -0.436236   -0.531676
 H     -1.771878    3.686830   -0.704746
 H      0.314062    4.898782   -0.249977
 H     -2.806837    1.817723   -2.524498
 H     -4.876539    0.494418   -2.401914
 C     -5.746371   -1.194934   -0.448810
 C     -3.533958   -1.218920    1.779054
 N      0.336050    1.149189   -0.395388
 N     -2.258612    0.093562    0.259364
 C      2.630970    0.801023    0.046065
 C      2.814747    3.932670    0.269424
 C      3.371882    3.469205    1.621347
 C      3.831793    3.755959   -0.866038
 C      2.536039    5.436402    0.394290
 H      3.659167    2.424368    1.634687
 H      4.257216    4.048784    1.876750
 H      2.641446    3.620040    2.415226
 H      4.737899    4.317432   -0.644990
 H      4.126968    2.724952   -1.027896
 H      3.433780    4.134095   -1.806997
 H      1.819170    5.662834    1.181685
 H      3.460468    5.950975    0.648919
 H      2.177697    5.875123   -0.535169
 C     -5.497104   -2.674675   -0.136417
 C     -6.645008   -0.538148    0.607318
 C     -6.495494   -1.143822   -1.787221
 H     -4.814130   -3.119578   -0.858488
 H     -5.087159   -2.839760    0.852274
 H     -6.434228   -3.225800   -0.187560
 H     -5.908396   -1.558358   -2.605142
 H     -7.404404   -1.737477   -1.712890
 H     -6.803316   -0.136432   -2.059998
 H     -6.219549   -0.561120    1.605476
 H     -6.845482    0.503330    0.358479
 H     -7.602197   -1.054639    0.655664
 H      2.584177    0.051441   -0.729344
 H      3.589201    1.290498    0.026410
 H      2.502621    0.289841    0.993288
 H     -3.176745   -2.240684    1.711531
 H     -2.902609   -0.690687    2.482751
 H     -4.555678   -1.213321    2.132160
