75

 Si    -0.069888   -1.831214   -0.058563
 O      1.389166   -1.250657    0.319983
 C      2.365035   -1.576664    1.253304
 C      3.608251   -1.926645    0.488360
 H      2.035956   -2.452769    1.817430
 C      3.460085   -2.804524   -0.579661
 C      4.863809   -1.415916    0.773471
 C      4.544206   -3.155420   -1.362221
 H      2.484105   -3.215627   -0.792607
 C      5.958498   -1.768753   -0.005939
 H      5.007751   -0.745371    1.610428
 C      5.801226   -2.633144   -1.077351
 H      4.410401   -3.840594   -2.194308
 H      6.938246   -1.362723    0.229727
 H      6.656777   -2.905896   -1.688794
 C      2.489844   -0.417425    2.210120
 C      1.190353   -0.090720    2.814390
 H      3.197285   -0.655768    3.012293
 H      2.864081    0.460741    1.688972
 C      0.126671    0.169569    3.304871
 H     -0.805159    0.393461    3.762647
 Cl    -0.560279   -2.758847   -1.787922
 Cl    -0.055853   -3.511875    1.119622
 O     -1.287849   -1.158050    0.913954
 O     -0.248987   -0.333742   -1.007897
 C     -2.123589    0.837384    0.240583
 C     -0.772467    1.372186    0.356031
 C      1.363841    1.261264   -0.683482
 C     -3.460550   -1.137047    0.220226
 C     -4.577726   -0.407058   -0.213006
 C     -3.197860    1.594319   -0.143538
 C     -4.411996    0.959266   -0.367196
 C     -0.419690    2.502718    1.038086
 C      0.867017    2.994676    0.869589
 C      1.771716    2.425218   -0.010633
 H     -3.078716    2.658102   -0.302995
 H     -5.242952    1.568755   -0.691566
 H     -1.136788    2.996085    1.681541
 H      1.140122    3.881040    1.423192
 C      3.128414    3.093056   -0.262130
 C      2.107642    0.501535   -1.717333
 N     -2.302718   -0.479989    0.416016
 N      0.146134    0.768394   -0.416373
 C     -3.369573   -2.590379    0.511732
 C     -5.927311   -1.067393   -0.510114
 C     -5.748733   -2.145632   -1.586826
 C     -6.522450   -1.634523    0.785632
 C     -6.937002   -0.051817   -1.060986
 H     -5.083364   -2.948090   -1.290193
 H     -6.710467   -2.597180   -1.823645
 H     -5.353746   -1.714316   -2.505759
 H     -7.490706   -2.088820    0.582913
 H     -5.904456   -2.394841    1.250649
 H     -6.677943   -0.844758    1.519731
 H     -6.600438    0.409642   -1.987732
 H     -7.872199   -0.562333   -1.282338
 H     -7.170376    0.736681   -0.347811
 C      4.280248    2.096580   -0.105605
 C      3.114808    3.718851   -1.664412
 C      3.387899    4.225412    0.740952
 H      4.341942    1.730583    0.916012
 H      4.204219    1.237550   -0.759043
 H      5.224797    2.588522   -0.329886
 H      3.364844    3.878820    1.772821
 H      4.378791    4.639497    0.564773
 H      2.682728    5.047855    0.639000
 H      2.996107    2.987941   -2.457518
 H      2.307610    4.443731   -1.761082
 H      4.050577    4.243770   -1.848599
 H     -2.903311   -2.722974    1.482044
 H     -4.333743   -3.069075    0.501538
 H     -2.721099   -3.054177   -0.226178
 H      2.800478    1.134759   -2.251892
 H      2.637119   -0.320092   -1.256929
 H      1.391187    0.084875   -2.412577
