75

 Si    -0.263368   -1.886985   -1.156965
 O      1.299651   -1.739878   -0.766124
 C      2.146459   -2.456633    0.074201
 C      2.102802   -1.768794    1.410996
 H      1.755463   -3.469188    0.189634
 C      3.163550   -1.065225    1.953113
 C      0.899238   -1.807260    2.102932
 C      3.024370   -0.399034    3.163668
 H      4.116401   -1.037858    1.444926
 C      0.747480   -1.137877    3.301645
 H      0.078184   -2.370219    1.690967
 C      1.814406   -0.426579    3.837712
 H      3.869777    0.141426    3.579667
 H     -0.201826   -1.181066    3.827213
 H      1.704057    0.095940    4.783913
 C      3.497768   -2.541601   -0.585268
 C      3.373330   -3.089086   -1.944021
 H      4.170911   -3.176417    0.003429
 H      3.949397   -1.554047   -0.654841
 C      3.240448   -3.516775   -3.057615
 H      3.142488   -3.908198   -4.042690
 Cl    -1.030405   -2.028967   -3.020131
 Cl    -0.546984   -3.849836   -0.624098
 O     -1.243277   -1.419168    0.149737
 O     -0.196519   -0.139102   -1.489217
 C     -1.572241    0.802346    0.440087
 C     -0.123706    0.966549    0.468655
 C      1.773350    0.895333   -0.965976
 C     -3.375906   -0.664389   -0.093941
 C     -4.298302    0.386811    0.011507
 C     -2.442711    1.850012    0.587271
 C     -3.795734    1.626115    0.373700
 C      0.580626    1.652730    1.418039
 C      1.910381    1.949131    1.160552
 C      2.527038    1.630264   -0.037977
 H     -2.064524    2.835344    0.826479
 H     -4.464342    2.468528    0.476313
 H      0.094874    1.969923    2.331184
 H      2.455509    2.492916    1.916876
 C      3.941260    2.140209   -0.336799
 C      2.171466    0.450313   -2.324285
 N     -2.075449   -0.400482    0.129370
 N      0.515489    0.563644   -0.641397
 C     -3.634583   -2.089439   -0.424629
 C     -5.794470    0.198680   -0.255380
 C     -6.002525   -0.304911   -1.689720
 C     -6.390098   -0.756787    0.787201
 C     -6.555387    1.525475   -0.134043
 H     -5.538141   -1.265058   -1.883338
 H     -7.065915   -0.415567   -1.894398
 H     -5.601521    0.405151   -2.411877
 H     -7.457831   -0.878482    0.613656
 H     -5.949069   -1.747390    0.770060
 H     -6.264808   -0.359760    1.793918
 H     -6.206215    2.272930   -0.844284
 H     -7.608634    1.353735   -0.347114
 H     -6.501614    1.949275    0.867149
 C      4.874020    1.008427   -0.774837
 C      3.843559    3.229978   -1.414798
 C      4.579411    2.778185    0.904210
 H      5.006655    0.283181    0.023307
 H      4.530620    0.476281   -1.652747
 H      5.856521    1.413079   -1.010496
 H      4.644348    2.082649    1.738636
 H      5.594850    3.088579    0.665635
 H      4.050721    3.668400    1.238702
 H      3.446212    2.863530   -2.355882
 H      3.206970    4.050077   -1.085342
 H      4.829463    3.643447   -1.620408
 H     -3.183245   -2.714425    0.338990
 H     -4.685994   -2.307580   -0.499970
 H     -3.143413   -2.321532   -1.365581
 H      2.468682   -0.589652   -2.290261
 H      1.308130    0.524071   -2.973214
 H      2.972420    1.052583   -2.725586
