75

 Si     0.405451   -1.905788    1.089681
 O     -1.195392   -1.674544    1.051308
 C     -2.241239   -2.337039    0.415550
 C     -2.443097   -1.647717   -0.905971
 H     -1.943435   -3.370266    0.227944
 C     -3.547571   -0.872731   -1.212060
 C     -1.423766   -1.762930   -1.842136
 C     -3.630686   -0.210961   -2.430097
 H     -4.363576   -0.784909   -0.509727
 C     -1.491646   -1.098538   -3.051313
 H     -0.572063   -2.381792   -1.612967
 C     -2.600197   -0.315347   -3.350096
 H     -4.508734    0.386456   -2.658114
 H     -0.683767   -1.201608   -3.769629
 H     -2.663297    0.203662   -4.302541
 C     -3.423961   -2.344940    1.347857
 C     -3.045727   -2.906556    2.652886
 H     -4.243350   -2.935391    0.920495
 H     -3.790337   -1.332480    1.504862
 C     -2.704388   -3.347455    3.715800
 H     -2.422633   -3.749422    4.660377
 Cl     1.551971   -2.096356    2.741583
 Cl     0.459646   -3.879559    0.524821
 O      1.098850   -1.487682   -0.403603
 O      0.505964   -0.158351    1.414157
 C      1.473116    0.714021   -0.779324
 C      0.065047    0.957367   -0.489320
 C     -1.469275    0.987609    1.329170
 C      3.269348   -0.849416   -0.641925
 C      4.200385    0.150054   -0.959745
 C      2.344399    1.713212   -1.125256
 C      3.697173    1.415785   -1.213564
 C     -0.791613    1.687393   -1.265063
 C     -2.012340    2.058332   -0.722532
 C     -2.365757    1.769913    0.585337
 H      1.975897    2.718224   -1.284210
 H      4.370561    2.220773   -1.470035
 H     -0.503024    1.979072   -2.266053
 H     -2.679688    2.635465   -1.344205
 C     -3.648574    2.356390    1.185050
 C     -1.580872    0.557700    2.744749
 N      1.967601   -0.514940   -0.575521
 N     -0.334956    0.586243    0.737576
 C      3.517391   -2.287310   -0.362795
 C      5.706235   -0.119904   -1.028619
 C      6.200524   -0.628147    0.332133
 C      6.003248   -1.111435   -2.161418
 C      6.490878    1.161813   -1.337816
 H      5.737058   -1.557859    0.641849
 H      7.274689   -0.801066    0.296857
 H      6.012183    0.108039    1.112561
 H      7.074961   -1.290256   -2.228170
 H      5.526529   -2.076511   -2.029596
 H      5.677149   -0.713069   -3.121503
 H      6.350576    1.929906   -0.579291
 H      7.554252    0.931980   -1.362978
 H      6.236669    1.584593   -2.308145
 C     -4.529420    1.272544    1.811638
 C     -3.255860    3.422663    2.218539
 C     -4.501152    3.049030    0.113826
 H     -4.879589    0.572414    1.057985
 H     -4.033643    0.703116    2.587495
 H     -5.408636    1.728790    2.262691
 H     -4.789832    2.370831   -0.686824
 H     -5.418909    3.416720    0.568726
 H     -4.003789    3.910245   -0.327675
 H     -2.687744    3.020452    3.051057
 H     -2.657313    4.209014    1.760550
 H     -4.147780    3.889765    2.632670
 H      2.892186   -2.885035   -1.018395
 H      4.550373   -2.558454   -0.496977
 H      3.212217   -2.499431    0.657918
 H     -1.900931   -0.475297    2.781094
 H     -0.597818    0.612658    3.195892
 H     -2.265148    1.178249    3.302526
