75

 Si     0.042349   -1.155540    1.631343
 O      1.425462   -2.047452    1.706271
 C      1.937964   -3.014611    0.849865
 C      2.079922   -2.368458   -0.500873
 H      1.223963   -3.837731    0.768899
 C      3.126976   -1.508577   -0.778421
 C      1.032687   -2.464121   -1.402645
 C      3.101980   -0.706011   -1.904338
 H      3.966645   -1.449129   -0.101445
 C      1.000845   -1.669572   -2.533715
 H      0.220424   -3.150252   -1.204219
 C      2.027364   -0.771521   -2.778330
 H      3.928996   -0.031344   -2.105108
 H      0.173361   -1.757537   -3.230948
 H      2.007467   -0.144590   -3.665405
 C      3.214551   -3.541051    1.452209
 C      2.948148   -4.220463    2.730344
 H      3.701503   -4.247018    0.767648
 H      3.902215   -2.714371    1.631765
 C      2.713305   -4.775072    3.768828
 H      2.524273   -5.276367    4.688013
 Cl     0.146174   -0.468802    3.517624
 Cl    -1.220492   -2.672571    1.203438
 O      0.788273   -0.379259    0.317626
 O     -1.182847    0.114962    1.354118
 C     -0.144805    1.381824   -0.693517
 C     -1.327611    0.552463   -0.878957
 C     -3.140759   -0.432982    0.306096
 C      1.892891    1.594937    0.521760
 C      2.047360    2.916910    0.076062
 C     -0.032789    2.665316   -1.159515
 C      1.076383    3.408732   -0.782613
 C     -1.985024    0.391850   -2.067616
 C     -3.212996   -0.255243   -2.063915
 C     -3.835580   -0.653759   -0.893050
 H     -0.814374    3.088285   -1.777283
 H      1.150649    4.420000   -1.155025
 H     -1.541771    0.763392   -2.982251
 H     -3.703241   -0.407807   -3.014124
 C     -5.219456   -1.307981   -0.934828
 C     -3.644011   -0.627674    1.693657
 N      0.834539    0.896362    0.077539
 N     -1.889747    0.060286    0.242884
 C      2.747958    0.854855    1.484134
 C      3.234501    3.792632    0.488782
 C      3.330421    3.881747    2.016128
 C      4.519167    3.222441   -0.127267
 C      3.077081    5.227181   -0.032885
 H      3.563125    2.933986    2.486584
 H      4.118520    4.578379    2.296014
 H      2.400233    4.249611    2.447285
 H      5.369134    3.850214    0.134592
 H      4.748376    2.217811    0.212294
 H      4.453637    3.195971   -1.214245
 H      2.179587    5.711168    0.348742
 H      3.925157    5.823316    0.297951
 H      3.062270    5.279800   -1.119850
 C     -5.222625   -2.602399   -0.114175
 C     -6.271044   -0.313104   -0.426153
 C     -5.605619   -1.691132   -2.369859
 H     -4.444807   -3.284586   -0.453794
 H     -5.077697   -2.437223    0.946231
 H     -6.178198   -3.110575   -0.229217
 H     -4.885941   -2.370172   -2.824253
 H     -6.565467   -2.203608   -2.358703
 H     -5.721740   -0.826459   -3.020160
 H     -6.112856   -0.011323    0.604185
 H     -6.282642    0.589851   -1.035541
 H     -7.262918   -0.758611   -0.480428
 H      2.632586   -0.202474    1.327603
 H      3.786546    1.134881    1.394438
 H      2.406959    1.073911    2.494529
 H     -3.389378   -1.614351    2.063790
 H     -3.160101    0.100648    2.332562
 H     -4.715392   -0.490837    1.732841
