75

 Si     0.734908   -0.486088    1.825195
 O      0.734818   -1.787155    0.861955
 C      1.308211   -2.148028   -0.342251
 C      2.201542   -3.338956   -0.133680
 H      1.902335   -1.323840   -0.737516
 C      1.944849   -4.213675    0.908882
 C      3.270955   -3.581865   -0.986500
 C      2.752973   -5.321699    1.108722
 H      1.121543   -4.011327    1.577824
 C      4.079194   -4.691716   -0.793516
 H      3.476051   -2.901640   -1.806525
 C      3.821543   -5.563914    0.255514
 H      2.547422   -5.996969    1.934188
 H      4.914521   -4.874629   -1.463590
 H      4.455522   -6.432650    0.409160
 C      0.203319   -2.463996   -1.328961
 C     -0.465534   -1.264497   -1.860053
 H      0.607894   -3.012525   -2.187137
 H     -0.525128   -3.110454   -0.838520
 C     -0.968765   -0.296105   -2.361172
 H     -1.416767    0.538499   -2.839121
 Cl     2.299742    0.639094    2.440339
 Cl     0.590395   -1.571291    3.563979
 O      0.640754    0.417302    0.272177
 O     -0.816671    0.162403    2.080981
 C     -0.624671    2.270636    0.507579
 C     -1.752334    1.354517    0.404642
 C     -2.544048   -0.824540    0.945013
 C      1.681345    2.432081   -0.041809
 C      1.646507    3.825855    0.125430
 C     -0.718381    3.629131    0.640890
 C      0.435926    4.387045    0.496810
 C     -2.796390    1.546852   -0.458246
 C     -3.707478    0.515351   -0.634206
 C     -3.590459   -0.699128    0.019109
 H     -1.675950    4.085600    0.857250
 H      0.358234    5.454338    0.642438
 H     -2.868417    2.467144   -1.023042
 H     -4.512570    0.672618   -1.337159
 C     -4.569955   -1.838689   -0.275665
 C     -2.240940   -1.973614    1.830532
 N      0.580432    1.721835    0.260111
 N     -1.696559    0.208001    1.094409
 C      2.797318    1.612768   -0.587579
 C      2.880650    4.709149   -0.078147
 C      4.075673    4.140467    0.695176
 C      3.182282    4.830969   -1.577694
 C      2.639434    6.126694    0.458528
 H      4.410940    3.180992    0.321020
 H      4.920874    4.822390    0.623305
 H      3.838839    4.021317    1.751325
 H      4.039659    5.483559   -1.733690
 H      3.415566    3.880961   -2.047698
 H      2.338401    5.264749   -2.112971
 H      2.380328    6.129025    1.515977
 H      3.551121    6.710914    0.350976
 H      1.862643    6.657409   -0.088192
 C     -3.790332   -3.066132   -0.763896
 C     -5.413199   -2.140734    0.969986
 C     -5.546066   -1.459621   -1.397421
 H     -3.223006   -2.829946   -1.662359
 H     -3.094755   -3.456210   -0.029917
 H     -4.480246   -3.871284   -1.010187
 H     -5.036556   -1.232226   -2.332073
 H     -6.208598   -2.300520   -1.592620
 H     -6.179581   -0.614719   -1.133934
 H     -4.826627   -2.453896    1.826574
 H     -5.988723   -1.265617    1.269426
 H     -6.120333   -2.940184    0.755488
 H      2.362774    0.779448   -1.124556
 H      3.405027    2.196711   -1.263946
 H      3.418310    1.216146    0.207786
 H     -2.984170   -2.748499    1.760076
 H     -1.266614   -2.364114    1.562689
 H     -2.180952   -1.619279    2.854088
