75

 Si     0.034202    0.912559    2.217798
 O      0.813129    1.947602    1.243381
 C      0.550195    2.985682    0.368666
 C     -0.168730    2.450072   -0.833666
 H     -0.080971    3.726354    0.871111
 C      0.404474    1.414318   -1.551574
 C     -1.423026    2.909196   -1.190177
 C     -0.279260    0.808759   -2.585301
 H      1.390170    1.078403   -1.284439
 C     -2.112955    2.316430   -2.239355
 H     -1.874639    3.730399   -0.644271
 C     -1.549614    1.256246   -2.928780
 H      0.178411   -0.001555   -3.142863
 H     -3.097649    2.684714   -2.513462
 H     -2.090175    0.788510   -3.747016
 C      1.869471    3.630786    0.003868
 C      2.647498    4.002430    1.194303
 H      1.694798    4.523319   -0.609888
 H      2.459484    2.933983   -0.591157
 C      3.283275    4.282226    2.173269
 H      3.850279    4.548074    3.033855
 Cl    -1.769881    1.005533    3.129700
 Cl     1.078156    1.377765    3.920798
 O     -0.794788    0.424931    0.687788
 O      0.844147   -0.577245    2.046774
 C     -0.720535   -1.783419    0.343234
 C      0.673590   -1.532036    0.009206
 C      2.677657   -0.426201    0.663781
 C     -2.811434   -0.689387    0.591497
 C     -3.478751   -1.928721    0.580158
 C     -1.325050   -3.007944    0.292764
 C     -2.702483   -3.067505    0.459018
 C      1.247261   -1.939830   -1.162186
 C      2.551380   -1.548326   -1.429914
 C      3.289583   -0.775369   -0.551462
 H     -0.731149   -3.898156    0.129076
 H     -3.168387   -4.041489    0.450536
 H      0.674222   -2.524010   -1.870048
 H      2.985127   -1.858168   -2.369664
 C      4.717883   -0.347485   -0.908583
 C      3.283587    0.317382    1.790249
 N     -1.466826   -0.684916    0.569580
 N      1.404995   -0.809212    0.868713
 C     -3.443038    0.654096    0.544012
 C     -5.003928   -2.048364    0.675593
 C     -5.554888   -1.192108    1.820924
 C     -5.625490   -1.648078   -0.669165
 C     -5.424574   -3.496038    0.966714
 H     -5.472400   -0.128210    1.637236
 H     -6.612667   -1.405339    1.962389
 H     -5.048587   -1.412362    2.759557
 H     -6.707968   -1.756659   -0.627166
 H     -5.418065   -0.618794   -0.944426
 H     -5.262219   -2.284797   -1.474992
 H     -4.984819   -3.875874    1.887504
 H     -6.505220   -3.539248    1.086134
 H     -5.174967   -4.179545    0.157930
 C      4.847151    1.177879   -0.821349
 C      5.716789   -1.066844    0.007742
 C      5.071635   -0.737016   -2.350584
 H      4.178687    1.662866   -1.530606
 H      4.630619    1.579368    0.160993
 H      5.862149    1.478387   -1.074365
 H      4.398395   -0.290118   -3.080166
 H      6.072810   -0.378370   -2.581119
 H      5.081386   -1.814362   -2.504525
 H      5.592676   -0.828937    1.058397
 H      5.629394   -2.147697   -0.095901
 H      6.734582   -0.792740   -0.264391
 H     -2.711589    1.351268    0.170334
 H     -4.295933    0.635448   -0.122740
 H     -3.765954    0.981939    1.524491
 H      2.865606    1.316556    1.815589
 H      3.018097   -0.177809    2.715767
 H      4.355661    0.366798    1.704873
