75

 Si     0.125319    0.750318    1.591940
 O      0.370186    2.023232    0.660285
 C     -0.154049    3.085258   -0.032580
 C      0.635306    4.312332    0.299416
 H     -1.188739    3.250517    0.262012
 C      2.019551    4.266033    0.238596
 C      0.006315    5.483424    0.693202
 C      2.774744    5.375929    0.572287
 H      2.503816    3.353199   -0.062823
 C      0.758308    6.603239    1.022055
 H     -1.076102    5.527008    0.746321
 C      2.142514    6.550728    0.963918
 H      3.858626    5.327599    0.524650
 H      0.258366    7.517810    1.328187
 H      2.731916    7.425569    1.223900
 C     -0.091706    2.754517   -1.503980
 C     -0.850098    1.554788   -1.877595
 H     -0.477108    3.594723   -2.094660
 H      0.947033    2.601086   -1.781266
 C     -1.462549    0.584179   -2.228411
 H     -2.012095   -0.245672   -2.591089
 Cl     1.752328    0.014456    2.514528
 Cl    -0.711570    1.690697    3.181955
 O     -1.070119   -0.480412    1.699529
 O      0.422815   -0.106062    0.049681
 C     -1.028472   -2.221664    0.249285
 C      0.412695   -2.324029    0.396656
 C      2.391807   -1.158989   -0.133879
 C     -2.883967   -0.784448    0.387245
 C     -3.703826   -1.641562   -0.323986
 C     -1.766724   -3.091290   -0.531512
 C     -3.090178   -2.815584   -0.772070
 C      1.146008   -3.469812    0.629979
 C      2.518559   -3.395442    0.576569
 C      3.198369   -2.235469    0.191626
 H     -1.287912   -3.969653   -0.946077
 H     -3.654866   -3.521355   -1.362638
 H      0.635949   -4.390412    0.886153
 H      3.081000   -4.284093    0.820417
 C      4.723866   -2.199737    0.219661
 C      2.724219    0.151351   -0.836193
 N     -1.632478   -1.141779    0.733740
 N      1.069137   -1.207056    0.090153
 C     -3.163265    0.636039    0.850229
 C     -5.188032   -1.407402   -0.611563
 C     -5.906111   -0.921957    0.649497
 C     -5.336218   -0.450974   -1.798436
 C     -5.867989   -2.729478   -1.003116
 H     -6.973288   -0.852697    0.454564
 H     -5.770045   -1.626607    1.467736
 H     -5.593093    0.047979    0.992271
 H     -4.885033   -0.877108   -2.693751
 H     -6.392096   -0.292658   -2.008668
 H     -4.888662    0.518010   -1.634533
 H     -5.740759   -3.502744   -0.247253
 H     -6.937041   -2.557735   -1.106976
 H     -5.524844   -3.119146   -1.958805
 F     -2.064885    1.313238    0.632734
 F     -3.464321    0.625077    2.111718
 F     -4.107007    1.202020    0.155422
 F      1.853677    0.281398   -1.805256
 F      3.917887    0.133466   -1.366154
 F      2.624574    1.143927   -0.010801
 C      5.280389   -2.350761   -1.198465
 C      5.191905   -0.925213    0.926209
 C      5.269644   -3.372181    1.049735
 H      4.982690   -3.307372   -1.626704
 H      4.960272   -1.573068   -1.875801
 H      6.367866   -2.329653   -1.168015
 H      4.936030   -0.016134    0.410773
 H      4.772642   -0.865776    1.928345
 H      6.274684   -0.937761    1.022819
 H      5.086872   -4.340748    0.589581
 H      6.349201   -3.269905    1.135963
 H      4.868166   -3.387546    2.061511
