75

 Si    -0.344478    0.126149    2.136686
 O      0.084338    1.670324    2.137293
 C      0.152183    2.769352    1.300111
 C      1.398642    2.636968    0.487444
 H     -0.682438    2.769406    0.621641
 C      2.627196    3.048681    0.969921
 C      1.332845    1.985477   -0.732347
 C      3.779516    2.824276    0.238295
 H      2.692071    3.544963    1.927617
 C      2.480752    1.746439   -1.464392
 H      0.375462    1.673523   -1.110645
 C      3.707479    2.175604   -0.982966
 H      4.736991    3.158839    0.624885
 H      2.416264    1.249517   -2.427279
 H      4.608747    2.015695   -1.564970
 C      0.067733    3.996197    2.164972
 C     -1.246072    4.086422    2.819280
 H      0.229020    4.902270    1.568221
 H      0.838288    3.949587    2.934226
 C     -2.321700    4.153505    3.347404
 H     -3.269422    4.234196    3.823028
 Cl     0.517426   -0.289650    3.924727
 Cl    -2.174383   -0.578011    2.599326
 O     -0.754776    0.437745    0.424275
 O      0.504009   -1.180981    1.423175
 C     -1.251382   -1.487440   -0.611643
 C      0.182840   -1.652730   -0.775371
 C      2.329621   -1.288476    0.111545
 C     -2.912095    0.112006   -0.129705
 C     -3.943608   -0.759037   -0.433860
 C     -2.222879   -2.370643   -1.037057
 C     -3.544702   -2.016348   -0.895442
 C      0.756035   -2.061240   -1.966429
 C      2.121298   -2.176969   -2.048215
 C      2.966086   -1.832826   -0.987635
 H     -1.933532   -3.335715   -1.434080
 H     -4.293569   -2.740896   -1.177863
 H      0.117635   -2.304009   -2.806625
 H      2.545702   -2.540029   -2.972553
 C      4.460993   -2.151987   -1.078806
 C      2.953543   -0.573467    1.299100
 N     -1.637635   -0.312651   -0.123560
 N      0.986267   -1.308078    0.225138
 C     -2.926916    1.617242    0.099887
 C     -5.425603   -0.453672   -0.232924
 C     -5.633397    0.171695    1.148878
 C     -5.946139    0.411912   -1.383332
 C     -6.244300   -1.754016   -0.238793
 H     -6.695119    0.327124    1.323515
 H     -5.264913   -0.491908    1.928356
 H     -5.152728    1.125626    1.279844
 H     -5.843186   -0.112206   -2.332969
 H     -7.004397    0.617247   -1.235771
 H     -5.442833    1.362512   -1.476322
 H     -5.897594   -2.467472    0.506763
 H     -7.278882   -1.519059    0.001583
 H     -6.256344   -2.245069   -1.209408
 F     -2.070206    2.103567   -0.773603
 F     -2.548314    1.905893    1.301988
 F     -4.091052    2.150352   -0.138360
 F      3.037149   -1.389004    2.305458
 F      2.176425    0.434347    1.571361
 F      4.125446   -0.096019    0.989306
 C      5.250702   -0.922347   -1.524625
 C      4.968142   -2.716407    0.249650
 C      4.685320   -3.254507   -2.127752
 H      4.893357   -0.557125   -2.486132
 H      5.199567   -0.108376   -0.817943
 H      6.299137   -1.188941   -1.644524
 H      4.996432   -1.995305    1.047044
 H      4.363723   -3.559865    0.576191
 H      5.985690   -3.076988    0.122883
 H      4.490449   -2.921364   -3.144404
 H      5.728320   -3.561650   -2.100234
 H      4.085754   -4.142173   -1.932479
