75

 Si    -0.125048    0.750928    1.591065
 O     -0.370562    2.023444    0.659041
 C      0.153112    3.085395   -0.034353
 C     -0.636818    4.312169    0.297040
 H      1.187762    3.251113    0.260152
 C     -2.020841    4.267158    0.229847
 C     -0.008796    5.481325    0.698016
 C     -2.776680    5.376445    0.563985
 H     -2.504607    3.355810   -0.076899
 C     -0.761418    6.600575    1.027442
 H      1.073390    5.523918    0.756299
 C     -2.145348    6.549397    0.962652
 H     -3.860374    5.329193    0.511280
 H     -0.262109    7.513613    1.339127
 H     -2.735351    7.423753    1.222897
 C      0.091271    2.753724   -1.505514
 C      0.850576    1.554273   -1.878280
 H      0.476282    3.593688   -2.096800
 H     -0.947204    2.599297   -1.783074
 C      1.464075    0.584090   -2.228474
 H      2.014374   -0.245458   -2.590734
 Cl    -1.751098    0.013906    2.514559
 Cl     0.711005    1.693051    3.180502
 O     -0.422789   -0.105944    0.049151
 O      1.070477   -0.479306    1.699324
 C     -0.412165   -2.323834    0.396818
 C      1.029025   -2.221147    0.249625
 C      2.884252   -0.783504    0.387160
 C     -2.391631   -1.159141   -0.133453
 C     -3.197908   -2.235788    0.191925
 C     -1.145273   -3.469808    0.630172
 C     -2.517776   -3.395635    0.576924
 C      1.767483   -3.090716   -0.531039
 C      3.090899   -2.814815   -0.771664
 C      3.704434   -1.640762   -0.323463
 H     -0.634988   -4.390252    0.886432
 H     -3.080155   -4.284252    0.821031
 H      1.288881   -3.969138   -0.945714
 H      3.655385   -3.520513   -1.362495
 C      5.188775   -1.406560   -0.610511
 C      3.163213    0.637323    0.849530
 N     -1.068774   -1.207118    0.089958
 N      1.632819   -1.140987    0.733708
 C     -2.724323    0.150995   -0.835837
 C     -4.723432   -2.200353    0.220497
 C     -5.191524   -0.925780    0.926881
 C     -5.280279   -2.351659   -1.197489
 C     -5.268727   -3.372744    1.050904
 H     -6.274279   -0.938486    1.023798
 H     -4.772104   -0.866003    1.928936
 H     -4.935994   -0.016672    0.411342
 H     -4.982037   -3.308013   -1.625930
 H     -6.367764   -2.331336   -1.166776
 H     -4.960845   -1.573626   -1.874750
 H     -4.867151   -3.387752    2.062647
 H     -6.348307   -3.270770    1.137223
 H     -5.085770   -4.341393    0.590990
 F     -1.854139    0.281728   -1.805072
 F     -2.625224    1.143767   -0.010533
 F     -3.918149    0.132755   -1.365631
 F      3.464183    0.626536    2.111108
 F      2.064745    1.314229    0.631979
 F      4.106961    1.203124    0.154696
 C      5.337343   -0.451236   -1.798133
 C      5.906208   -0.920251    0.650519
 C      5.868987   -2.728913   -1.000697
 H      4.888219   -0.878991   -2.693717
 H      4.888208    0.517400   -1.636210
 H      6.393268   -0.291457   -2.007113
 H      5.593633    0.050157    0.992360
 H      5.769364   -1.624042    1.469365
 H      6.973563   -0.851652    0.456267
 H      5.525691   -3.119925   -1.955779
 H      6.937986   -2.557178   -1.105068
 H      5.741913   -3.501370   -0.243972
