75

 Si    -0.217516    0.523297    1.870691
 O     -0.030667    1.988266    1.265541
 C      0.716427    3.135460    1.403650
 C      1.856382    3.022759    0.442482
 H      1.097227    3.213040    2.424212
 C      1.584622    2.576625   -0.839493
 C      3.166000    3.226411    0.834631
 C      2.612736    2.316968   -1.722697
 H      0.561477    2.402207   -1.124915
 C      4.203190    2.979840   -0.052021
 H      3.383092    3.563690    1.841876
 C      3.929243    2.520408   -1.328507
 H      2.389772    1.962261   -2.724425
 H      5.230029    3.141029    0.262288
 H      4.741859    2.326343   -2.022328
 C     -0.194548    4.300615    1.114584
 C     -1.317156    4.338025    2.062281
 H      0.358881    5.245705    1.177410
 H     -0.582072    4.203008    0.101517
 C     -2.224194    4.343822    2.848231
 H     -3.025385    4.375544    3.546820
 Cl     0.787979    0.745397    3.615998
 Cl    -2.039834    0.118612    2.609181
 O     -0.621906    0.190373    0.167478
 O      0.494703   -1.034556    1.677680
 C     -1.418365   -1.901679   -0.022289
 C     -0.022146   -2.285857   -0.140411
 C      2.177242   -1.565901    0.267447
 C     -2.814519   -0.012097   -0.251037
 C     -3.970301   -0.771915   -0.184335
 C     -2.521677   -2.727586   -0.073723
 C     -3.772046   -2.153516   -0.104199
 C      0.447792   -3.152156   -1.111098
 C      1.802444   -3.260803   -1.312452
 C      2.725512   -2.452610   -0.639649
 H     -2.389882   -3.802496   -0.050838
 H     -4.627738   -2.811440   -0.083846
 H     -0.258952   -3.718019   -1.705462
 H      2.149728   -3.962178   -2.056500
 C      4.220802   -2.610654   -0.915242
 C      2.833047   -0.389777    0.970901
 N     -1.616673   -0.583206   -0.057234
 N      0.866254   -1.599319    0.570523
 C     -2.637941    1.470352   -0.566394
 C     -5.385396   -0.202156   -0.116508
 C     -5.423086    0.976480    0.858727
 C     -5.875903    0.158890   -1.520823
 C     -6.351443   -1.254816    0.449989
 H     -6.452027    1.295613    1.003727
 H     -5.028351    0.686624    1.829814
 H     -4.875798    1.840419    0.526704
 H     -5.269553    0.905961   -2.011712
 H     -5.898690   -0.723861   -2.159177
 H     -6.890582    0.547986   -1.463924
 H     -6.034769   -1.628106    1.422400
 H     -7.329601   -0.798834    0.585772
 H     -6.497011   -2.102315   -0.216091
 F     -1.637175    1.576901   -1.404602
 F     -2.391853    2.127813    0.516749
 F     -3.699913    1.952154   -1.158968
 F      3.119044   -0.702684    2.193807
 F      1.950578    0.575557    0.924993
 F      3.885244    0.030418    0.337124
 C      4.668490   -1.541621   -1.916234
 C      5.016060   -2.574550    0.391012
 C      4.496535   -3.984366   -1.547091
 H      4.135083   -1.649570   -2.859944
 H      4.515192   -0.531562   -1.565126
 H      5.730059   -1.658897   -2.125147
 H      5.003482   -1.620827    0.887916
 H      4.650809   -3.323853    1.090583
 H      6.058981   -2.802711    0.186278
 H      4.083890   -4.083706   -2.548355
 H      5.571550   -4.120284   -1.642616
 H      4.123234   -4.804391   -0.935599
