81

 Si    -0.255946    1.174211    2.315014
 O      0.444263    1.784697    1.032244
 C      0.169038    2.811972    0.118908
 C      0.862833    2.471004   -1.154260
 H     -0.903588    2.845547   -0.055042
 C      2.125112    1.909592   -1.104639
 C      0.242441    2.664261   -2.377165
 C      2.754141    1.503818   -2.268586
 H      2.611096    1.798018   -0.149837
 C      0.866030    2.260453   -3.544125
 H     -0.740247    3.111497   -2.420063
 C      2.120137    1.669822   -3.491701
 H      3.748135    1.073502   -2.229227
 H      0.370726    2.408121   -4.499154
 H      2.612540    1.356049   -4.407978
 C      0.627959    4.126447    0.706763
 C     -0.224537    4.536436    1.836094
 H      0.588285    4.907434   -0.061250
 H      1.662934    4.027770    1.039228
 C     -0.953122    4.852569    2.736644
 H     -1.589264    5.133345    3.542111
 Cl     0.167918    1.789867    4.145873
 Cl    -2.233560    1.115235    2.172052
 O     -0.787074    0.438932   -1.247236
 O      0.364822   -0.380127    2.198946
 C     -1.004959   -1.221590    0.178583
 C      0.442140   -1.208801    0.103113
 C      2.443161   -0.707694    1.262037
 C     -2.910915   -0.152710   -0.706502
 C     -3.750225   -0.963649    0.056837
 C     -1.772601   -2.069427    0.948697
 C     -3.143404   -1.922789    0.860179
 C      1.159622   -1.614050   -1.013495
 C      2.530619   -1.565572   -0.923218
 C      3.228158   -1.139519    0.210898
 H     -3.753768   -2.577611    1.456286
 H      3.089912   -1.891964   -1.784094
 C      4.759015   -1.198011    0.210841
 C      2.857973   -0.087537    2.583244
 N     -1.558228   -0.284333   -0.622038
 N      1.095477   -0.737631    1.154387
 C     -3.221640    0.982580   -1.661308
 C     -5.270217   -0.836332    0.085890
 C     -5.644251    0.554904    0.606255
 C     -5.847547   -1.174595   -1.291724
 C     -5.907594   -1.833316    1.066157
 H     -6.726009    0.663356    0.629307
 H     -5.281155    0.683629    1.624467
 H     -5.255212    1.369564    0.020104
 H     -5.652940   -2.219019   -1.532303
 H     -6.926461   -1.036728   -1.284584
 H     -5.452955   -0.579279   -2.098221
 H     -5.581565   -1.682882    2.093108
 H     -6.986632   -1.692854    1.053657
 H     -5.722929   -2.870380    0.794454
 F     -2.683420    0.717278   -2.828936
 F     -2.708203    2.090297   -1.164989
 F     -4.501711    1.186598   -1.848333
 F      2.302282   -0.748387    3.560939
 F      2.406257    1.144944    2.534421
 F      4.140361   -0.049688    2.782171
 C      5.344597    0.213220    0.308604
 C      5.227007   -2.150436    1.316695
 C      5.294467   -1.785908   -1.104044
 H      5.074901    0.794863   -0.569352
 H      5.028870    0.773272    1.172371
 H      6.430046    0.156337    0.343139
 H      4.907779   -1.875738    2.308767
 H      4.864329   -3.159277    1.124174
 H      6.313644   -2.192386    1.330185
 H      5.043890   -1.180266   -1.972314
 H      6.380536   -1.822729   -1.050500
 H      4.954389   -2.804004   -1.282400
 C     -1.117856   -3.077714    1.839955
 H     -0.565662   -2.566891    2.627184
 H     -1.859464   -3.728242    2.297237
 H     -0.417282   -3.692656    1.273870
 C      0.449287   -2.073606   -2.246864
 H     -0.347358   -2.771867   -1.996073
 H      0.010332   -1.210057   -2.742808
 H      1.142038   -2.563190   -2.927731
