81

 Si    -0.021886    0.925273    2.075196
 O     -0.577034    2.263700    1.426107
 C     -0.856101    3.525568    0.962376
 C     -2.282830    3.481300    0.521964
 H     -0.758251    4.232889    1.798300
 C     -2.651303    3.292447   -0.795121
 C     -3.255200    3.462966    1.510459
 C     -3.973453    3.053584   -1.124055
 H     -1.906555    3.308285   -1.573565
 C     -4.577421    3.224319    1.190002
 H     -2.967627    3.616949    2.542756
 C     -4.937643    3.008372   -0.132163
 H     -4.248584    2.896651   -2.161864
 H     -5.329315    3.204736    1.973022
 H     -5.974733    2.814723   -0.389702
 C      0.140632    3.913348   -0.105630
 C      0.431669    2.830627   -1.046050
 H      1.076890    4.213806    0.365120
 H     -0.225272    4.784702   -0.660352
 C      0.705495    1.951778   -1.814758
 H      0.927118    1.201169   -2.529725
 Cl    -1.294875   -0.363924    2.952128
 Cl     0.724090    1.723714    3.789412
 O     -0.314292    0.328450    0.416708
 O      1.438119    0.048296    1.840177
 C      0.292957   -1.823827    0.371228
 C      1.592339   -1.277126    0.015278
 C      3.039567    0.556121    0.326986
 C     -1.969477   -1.168187    0.213343
 C     -2.421601   -2.462938    0.435948
 C     -0.065906   -3.138645    0.585235
 C     -1.426825   -3.409140    0.648391
 C      2.287751   -1.654852   -1.126443
 C      3.425728   -0.936511   -1.436278
 C      3.858373    0.177993   -0.723709
 H     -1.711012   -4.428930    0.853537
 H      3.984740   -1.247386   -2.303998
 C      5.163134    0.869342   -1.119984
 C      3.086179    1.815902    1.171308
 N     -0.667127   -0.897116    0.305858
 N      1.999446   -0.209571    0.696442
 C     -2.700613    0.111264   -0.168492
 C     -3.892720   -2.849387    0.543585
 C     -4.588020   -1.910170    1.532648
 C     -4.531438   -2.853212   -0.847870
 C     -4.046842   -4.266927    1.112917
 H     -5.621844   -2.218847    1.667604
 H     -4.101987   -1.951529    2.505273
 H     -4.605422   -0.880094    1.221574
 H     -4.056139   -3.599073   -1.484317
 H     -5.584444   -3.114988   -0.767935
 H     -4.472669   -1.902552   -1.355526
 H     -3.590620   -4.373466    2.095449
 H     -5.106112   -4.486555    1.228345
 H     -3.639466   -5.033741    0.457105
 F     -2.042723    0.619618   -1.176602
 F     -2.688168    0.921285    0.834790
 F     -3.930223   -0.094051   -0.549042
 F      3.540352    1.523390    2.350883
 F      1.854273    2.248164    1.226683
 F      3.799889    2.760616    0.629917
 C      4.850723    2.141060   -1.913785
 C      6.024727    1.115997    0.120999
 C      5.996779   -0.040661   -2.036575
 H      4.312763    1.897038   -2.828853
 H      4.257650    2.860702   -1.370580
 H      5.779519    2.630568   -2.199909
 H      5.588576    1.787410    0.839361
 H      6.240500    0.178697    0.631009
 H      6.975623    1.550880   -0.176549
 H      5.537904   -0.201802   -3.009430
 H      6.957094    0.434775   -2.223936
 H      6.203124   -1.010126   -1.586186
 C      0.950898   -4.219140    0.814128
 H      0.860270   -5.003761    0.060457
 H      1.962568   -3.825807    0.802249
 H      0.772435   -4.672496    1.791511
 C      1.826386   -2.780115   -2.008265
 H      2.255651   -2.669807   -3.002252
 H      2.148906   -3.741368   -1.605756
 H      0.742937   -2.790647   -2.098514
