81

 Si    -0.273422    0.645643    2.359588
 O      0.122835    1.384702    1.021339
 C      0.395015    2.635952    0.440619
 C      1.612180    2.460701   -0.403012
 H     -0.444872    2.870178   -0.195930
 C      2.853726    2.254545    0.180296
 C      1.501787    2.486813   -1.784878
 C      3.979730    2.107495   -0.611228
 H      2.945588    2.228996    1.258163
 C      2.623106    2.315757   -2.582127
 H      0.533249    2.641254   -2.239620
 C      3.866693    2.134376   -1.994862
 H      4.953049    1.988608   -0.147929
 H      2.526474    2.341400   -3.663766
 H      4.751518    2.025087   -2.615899
 C      0.521536    3.706098    1.493689
 C     -0.753762    3.904267    2.199557
 H      0.809962    4.646719    1.010698
 H      1.297130    3.446126    2.213999
 C     -1.805447    4.046921    2.759443
 H     -2.731184    4.174349    3.267800
 Cl     0.659927    1.237514    3.999410
 Cl    -2.212163    0.453541    2.734522
 O     -1.028249    1.121390   -1.303470
 O      0.193335   -0.903329    1.903020
 C     -1.193561   -0.829873   -0.262814
 C      0.247244   -0.921832   -0.363303
 C      2.190586   -1.416369    0.903875
 C     -3.078301    0.556057   -0.533630
 C     -3.927487   -0.441101   -0.064767
 C     -1.975174   -1.850615    0.255283
 C     -3.336687   -1.646101    0.300851
 C      0.979014   -0.973123   -1.542512
 C      2.337205   -1.171730   -1.423880
 C      2.994101   -1.440044   -0.217962
 H     -3.950856   -2.450623    0.663606
 H      2.909400   -1.186794   -2.336466
 C      4.488216   -1.776434   -0.237459
 C      2.502263   -1.846647    2.329477
 N     -1.746170    0.315456   -0.721125
 N      0.895589   -1.051221    0.790160
 C     -3.361995    2.007087   -0.861259
 C     -5.442581   -0.301668    0.055277
 C     -5.773807    0.616069    1.235822
 C     -6.034519    0.153119   -1.281749
 C     -6.109389   -1.652193    0.362796
 H     -6.852402    0.723982    1.327746
 H     -5.408058    0.179992    2.164226
 H     -5.356601    1.606515    1.156958
 H     -5.853996   -0.599744   -2.047538
 H     -7.111446    0.270778   -1.187243
 H     -5.645473    1.086486   -1.649211
 H     -5.832197   -2.051813    1.335587
 H     -7.188555   -1.513414    0.378485
 H     -5.897008   -2.406345   -0.392249
 F     -3.192682    2.214788   -2.144951
 F     -2.523449    2.743951   -0.161841
 F     -4.571421    2.390452   -0.534093
 F      1.548354   -2.658937    2.717363
 F      2.531522   -0.772520    3.074280
 F      3.632282   -2.485178    2.439510
 C      5.251655   -0.954703    0.801705
 C      4.658024   -3.289446   -0.060827
 C      5.110666   -1.416599   -1.594889
 H      5.175769    0.103401    0.574632
 H      4.922687   -1.090674    1.816098
 H      6.304982   -1.222074    0.774348
 H      4.270962   -3.668302    0.872990
 H      4.160061   -3.826635   -0.867070
 H      5.714269   -3.547002   -0.101461
 H      4.960026   -0.372612   -1.856097
 H      6.184402   -1.583780   -1.543457
 H      4.741366   -2.034437   -2.410146
 C     -1.352872   -3.128519    0.722076
 H     -0.817576   -2.962280    1.652113
 H     -2.117545   -3.881857    0.893104
 H     -0.651247   -3.512553   -0.016535
 C      0.304462   -0.865594   -2.873245
 H     -0.548772   -1.541306   -2.915878
 H     -0.057262    0.146851   -3.023222
 H      0.996241   -1.127397   -3.670909
