81

 Si     0.194577    1.087358    1.823895
 O     -0.332800    1.614321    0.424614
 C      0.257588    2.410245   -0.576854
 C      1.016712    3.519619    0.079924
 H      0.931880    1.779198   -1.146205
 C      0.351354    4.410161    0.910519
 C      2.387276    3.634293   -0.091385
 C      1.047470    5.407021    1.569369
 H     -0.716481    4.315833    1.049646
 C      3.089956    4.634713    0.564101
 H      2.910128    2.937161   -0.732395
 C      2.421760    5.520778    1.395925
 H      0.518616    6.094861    2.222225
 H      4.164254    4.717246    0.427207
 H      2.971918    6.301297    1.914010
 C     -0.858217    2.896598   -1.460643
 C     -1.439251    1.832773   -2.293632
 H     -0.483679    3.676000   -2.135601
 H     -1.636518    3.340707   -0.839093
 C     -1.895624    0.996119   -3.023125
 H     -2.294637    0.282520   -3.700155
 Cl     2.091321    0.514888    1.823332
 Cl    -0.054188    2.148383    3.474003
 O     -0.806969   -0.247710    1.938158
 O      0.637472   -0.360489   -1.479413
 C     -1.032666   -1.394460    0.009499
 C      0.354875   -1.768509    0.198377
 C      2.505815   -1.389543   -0.688787
 C     -2.816241   -0.069073    0.819006
 C     -3.603187   -0.359336   -0.278237
 C     -1.789650   -1.795818   -1.080221
 C     -3.051941   -1.262443   -1.190048
 C      0.842113   -2.640490    1.147477
 C      2.204840   -2.866567    1.147726
 C      3.071281   -2.247633    0.254463
 H     -3.638020   -1.558477   -2.043841
 H      2.597782   -3.542146    1.886449
 C      4.567965   -2.515573    0.381520
 C      3.148651   -0.559425   -1.782306
 N     -1.560335   -0.559806    0.891977
 N      1.164260   -1.147938   -0.692088
 C     -3.139738    0.799093    2.020742
 C     -4.973678    0.254431   -0.577863
 C     -6.027362   -0.307531    0.380757
 C     -4.853559    1.780603   -0.566498
 C     -5.443293   -0.109965   -1.994803
 H     -6.992643    0.148543    0.171530
 H     -6.134575   -1.381802    0.234888
 H     -5.814496   -0.142871    1.425084
 H     -4.130929    2.102408   -1.312874
 H     -5.812158    2.226405   -0.820449
 H     -4.555627    2.200511    0.378143
 H     -5.629447   -1.174139   -2.122504
 H     -6.387868    0.394046   -2.187841
 H     -4.746077    0.217321   -2.762504
 F     -2.407587    1.880020    1.893092
 F     -2.819848    0.154051    3.109702
 F     -4.391500    1.138010    2.102117
 F      2.613756   -0.891706   -2.933926
 F      4.444984   -0.720145   -1.881801
 F      2.926772    0.713817   -1.522156
 C      5.080471   -3.218376   -0.879032
 C      5.283570   -1.202887    0.714753
 C      4.881107   -3.466511    1.547454
 H      4.623150   -4.202876   -0.969391
 H      4.885937   -2.688356   -1.796344
 H      6.156249   -3.363535   -0.810572
 H      5.135758   -0.418158   -0.006933
 H      4.943812   -0.826341    1.678089
 H      6.354915   -1.373227    0.789912
 H      4.432913   -4.449948    1.423611
 H      5.957952   -3.616041    1.595292
 H      4.575021   -3.067697    2.512218
 C     -0.091365   -3.283590    2.125130
 H     -0.866437   -3.844324    1.600184
 H      0.445134   -3.965116    2.780779
 H     -0.573361   -2.518802    2.731514
 C     -1.210181   -2.721225   -2.103440
 H     -0.686646   -3.547611   -1.626035
 H     -1.992789   -3.124750   -2.742500
 H     -0.499799   -2.168384   -2.716919
