81

 Si     0.135584    0.884677    1.902786
 O     -0.108222    2.327627    1.263755
 C     -0.895604    3.449553    1.348087
 C     -2.045286    3.246504    0.412612
 H     -1.264800    3.572722    2.368816
 C     -1.782241    2.695573   -0.829748
 C     -3.351782    3.483962    0.795168
 C     -2.816221    2.363511   -1.680905
 H     -0.761253    2.498481   -1.105618
 C     -4.395235    3.164707   -0.060769
 H     -3.561591    3.905021    1.771991
 C     -4.130203    2.599898   -1.296107
 H     -2.599879    1.927516   -2.651502
 H     -5.419972    3.352658    0.245579
 H     -4.947895    2.349900   -1.965583
 C     -0.033767    4.629002    0.975906
 C      1.111109    4.752774    1.888629
 H     -0.618169    5.556946    1.005579
 H      0.330838    4.492463   -0.041169
 C      2.039508    4.829492    2.645350
 H      2.858554    4.924250    3.316941
 Cl     1.997863    0.588229    2.593476
 Cl    -0.797105    1.150083    3.685110
 O     -0.519158   -0.707357    1.807646
 O      0.489934    0.509001    0.194027
 C     -0.048652   -1.958344   -0.016477
 C      1.341558   -1.566276    0.149123
 C      2.679308    0.340821   -0.252314
 C     -2.247450   -1.270477    0.466039
 C     -2.801070   -2.136397   -0.459705
 C     -0.509980   -2.754888   -1.058598
 C     -1.879533   -2.863356   -1.208866
 C      2.458563   -2.364742    0.281116
 C      3.690215   -1.732229    0.182589
 C      3.856890   -0.383546   -0.105949
 H     -2.243013   -3.511397   -1.990300
 H      4.564230   -2.346411    0.327981
 C      5.257469    0.222691   -0.141294
 C      2.455034    1.790630   -0.665669
 N     -0.931145   -1.295108    0.725543
 N      1.507552   -0.247050   -0.005799
 C     -2.904386   -0.123552    1.207107
 C     -4.298639   -2.341606   -0.682663
 C     -5.040705   -2.369813    0.654957
 C     -4.827337   -1.266133   -1.635070
 C     -4.547797   -3.709296   -1.338927
 H     -6.085036   -2.619171    0.484978
 H     -4.627326   -3.131334    1.313418
 H     -5.031535   -1.432840    1.183176
 H     -4.326015   -1.326438   -2.600271
 H     -5.890436   -1.422119   -1.807987
 H     -4.701088   -0.260774   -1.261216
 H     -4.111718   -4.527661   -0.768259
 H     -5.619566   -3.888621   -1.388650
 H     -4.178729   -3.765718   -2.360245
 F     -2.052742    0.867022    1.118646
 F     -3.120743   -0.447005    2.441403
 F     -3.998521    0.270412    0.629404
 F      2.193119    2.508011    0.375632
 F      1.444900    1.809765   -1.500909
 F      3.495590    2.272141   -1.295628
 C      5.677468    0.485943   -1.589779
 C      5.296843    1.472835    0.740695
 C      6.284245   -0.751983    0.455019
 H      5.713774   -0.445942   -2.153361
 H      5.022303    1.163621   -2.116152
 H      6.675913    0.918064   -1.608211
 H      4.695013    2.286789    0.377857
 H      4.964610    1.241151    1.750144
 H      6.317358    1.841794    0.805891
 H      6.406333   -1.656553   -0.136930
 H      7.256954   -0.265649    0.480526
 H      6.043047   -1.036357    1.477695
 C      0.422248   -3.460000   -2.001967
 H     -0.092559   -3.676668   -2.936106
 H      1.295455   -2.850676   -2.221331
 H      0.758850   -4.405586   -1.574005
 C      2.363717   -3.829132    0.598008
 H      2.806799   -4.428390   -0.199897
 H      2.920639   -4.030284    1.515335
 H      1.334715   -4.139357    0.750193
