81

 Si     0.147209   -1.576026    0.701854
 O      1.222794   -2.643143    0.277864
 C      2.325565   -3.476015    0.550987
 C      3.438858   -2.992574   -0.320960
 H      2.012853   -4.475981    0.227046
 C      4.599015   -2.420095    0.164823
 C      3.230306   -3.050775   -1.691445
 C      5.533775   -1.888929   -0.707787
 H      4.782352   -2.372438    1.228440
 C      4.155737   -2.518854   -2.567135
 H      2.325191   -3.507055   -2.069578
 C      5.310725   -1.928035   -2.072981
 H      6.438728   -1.437005   -0.314265
 H      3.978914   -2.565056   -3.637222
 H      6.041675   -1.505535   -2.756255
 C      2.591214   -3.504793    2.032614
 C      1.411783   -4.003087    2.759469
 H      3.444546   -4.160417    2.240758
 H      2.833121   -2.506376    2.392416
 C      0.430194   -4.402785    3.323120
 H     -0.433177   -4.752888    3.837977
 Cl     0.219261   -0.690280    2.463817
 Cl    -1.655775   -2.333272    0.362588
 O      0.365931   -0.397340   -0.463389
 O     -2.208739    1.397579    1.655223
 C     -0.549302    1.643999   -0.209627
 C     -1.804814    0.973217   -0.482958
 C     -3.822196    0.264049    0.513875
 C      1.789430    1.323906    0.025200
 C      1.990491    2.634497    0.409780
 C     -0.417556    2.993583    0.093867
 C      0.845278    3.439320    0.414113
 C     -2.154388    0.416863   -1.696314
 C     -3.364714   -0.239031   -1.763016
 C     -4.212853   -0.362773   -0.666756
 H      0.944504    4.478761    0.681058
 H     -3.641643   -0.682523   -2.702226
 C     -5.479188   -1.201371   -0.819514
 C     -4.532199    0.369365    1.852162
 N      0.534127    0.879159   -0.199898
 N     -2.611832    0.895628    0.605332
 C      2.791101    0.200992   -0.169262
 C      3.329075    3.228448    0.849555
 C      3.909557    2.383040    1.986991
 C      4.258782    3.372375   -0.358795
 C      3.143651    4.639841    1.428004
 H      4.851913    2.811411    2.319687
 H      3.232364    2.379225    2.839565
 H      4.106040    1.358120    1.724174
 H      3.829146    4.058928   -1.087377
 H      5.212223    3.788490   -0.040584
 H      4.467527    2.445381   -0.869526
 H      2.465011    4.659265    2.278690
 H      4.106812    5.000820    1.782621
 H      2.794764    5.359011    0.690003
 F      2.554518   -0.378724   -1.309370
 F      2.597888   -0.643563    0.809251
 F      4.028646    0.586338   -0.158867
 F     -4.643928    1.642707    2.162708
 F     -3.831701   -0.272316    2.757004
 F     -5.743502   -0.136092    1.842848
 C     -5.451677   -2.342765    0.201371
 C     -6.716341   -0.302580   -0.736636
 C     -5.546003   -1.884431   -2.194973
 H     -4.597640   -2.990884    0.012926
 H     -5.392464   -2.024452    1.227218
 H     -6.349743   -2.948076    0.104532
 H     -6.782044    0.281897    0.166094
 H     -6.730212    0.391652   -1.576023
 H     -7.617928   -0.908119   -0.798410
 H     -4.703466   -2.548303   -2.377044
 H     -6.445636   -2.495212   -2.236996
 H     -5.610738   -1.176778   -3.018365
 C     -1.617219    3.887765    0.101701
 H     -2.229402    3.714319   -0.782030
 H     -2.217784    3.670028    0.983872
 H     -1.316338    4.933097    0.122892
 C     -1.226559    0.517544   -2.866708
 H     -0.338463   -0.084520   -2.685732
 H     -1.710095    0.160446   -3.772480
 H     -0.915334    1.550201   -3.025584
