81

 Si     1.061155   -0.927535    0.125214
 O      0.892139   -2.157014    1.163294
 C      0.879452   -3.507443    1.394135
 C      2.119054   -4.145715    0.844236
 H      0.011140   -3.955997    0.915181
 C      3.349721   -3.573457    1.126355
 C      2.056473   -5.275625    0.046943
 C      4.511142   -4.115753    0.609688
 H      3.387943   -2.687345    1.742912
 C      3.219758   -5.829046   -0.471213
 H      1.097494   -5.730076   -0.175511
 C      4.447399   -5.248942   -0.193563
 H      5.469393   -3.656414    0.833085
 H      3.163593   -6.716166   -1.095592
 H      5.357762   -5.679756   -0.600568
 C      0.779328   -3.702584    2.888605
 C     -0.392429   -3.033957    3.472685
 H      0.734533   -4.770474    3.135585
 H      1.674734   -3.288401    3.353285
 C     -1.340563   -2.488214    3.967391
 H     -2.178999   -2.029733    4.431969
 Cl     2.279193    0.143167    1.313708
 Cl     1.912036   -1.893337   -1.413060
 O      0.738879    0.370067   -1.052328
 O     -0.532369   -0.493373    0.635328
 C     -0.373638    2.006270    0.034151
 C     -1.554472    1.244531   -0.338318
 C     -2.427076   -0.940370   -0.504249
 C      1.868561    2.282628   -0.635280
 C      2.041308    3.386076    0.189322
 C     -0.314934    3.137922    0.820365
 C      0.918124    3.767837    0.910973
 C     -2.623315    1.755083   -1.062177
 C     -3.617245    0.863869   -1.419477
 C     -3.575017   -0.501446   -1.146235
 H      0.985276    4.617794    1.570722
 H     -4.458328    1.258131   -1.966444
 C     -4.748885   -1.392834   -1.547606
 C     -1.936847   -2.345599   -0.205493
 N      0.737831    1.573515   -0.567539
 N     -1.497521   -0.060185   -0.096713
 C      2.772212    1.759897   -1.747925
 C      3.370478    4.105686    0.413438
 C      4.511764    3.091524    0.506013
 C      3.591182    5.154522   -0.678986
 C      3.345640    4.841367    1.762625
 H      5.418888    3.593744    0.831998
 H      4.283448    2.316695    1.233492
 H      4.746511    2.610689   -0.426599
 H      2.796236    5.899665   -0.665073
 H      4.530327    5.675163   -0.501620
 H      3.635458    4.736254   -1.674443
 H      3.115681    4.175331    2.592480
 H      4.329709    5.263544    1.953896
 H      2.646504    5.674117    1.782957
 F      1.998117    1.470434   -2.763666
 F      3.440541    0.722027   -1.356595
 F      3.595723    2.703594   -2.138493
 F     -1.852832   -2.498946    1.075861
 F     -0.753517   -2.422698   -0.764452
 F     -2.677591   -3.286068   -0.713820
 C     -4.345742   -2.269107   -2.737415
 C     -5.230737   -2.182847   -0.326897
 C     -5.948667   -0.550240   -2.007419
 H     -4.098970   -1.649256   -3.598513
 H     -3.500212   -2.910763   -2.545309
 H     -5.179739   -2.907273   -3.021463
 H     -4.482497   -2.818304    0.116000
 H     -5.587084   -1.505379    0.447804
 H     -6.063907   -2.821895   -0.609239
 H     -5.753973    0.001541   -2.924620
 H     -6.783386   -1.215909   -2.216488
 H     -6.285354    0.151363   -1.246164
 C     -1.494700    3.631389    1.607288
 H     -2.318201    2.924634    1.580145
 H     -1.199197    3.774327    2.647838
 H     -1.837970    4.594242    1.222650
 C     -2.695298    3.201254   -1.459737
 H     -1.711376    3.586031   -1.717958
 H     -3.350237    3.316308   -2.321402
 H     -3.099016    3.803238   -0.643953
