81

 Si    -1.055085   -0.928557    0.121457
 O     -0.880392   -2.165503    1.149275
 C     -0.888559   -3.516305    1.378320
 C     -2.133581   -4.138374    0.822057
 H     -0.023334   -3.975276    0.902673
 C     -3.359448   -3.556921    1.106516
 C     -2.080838   -5.266347    0.021359
 C     -4.525381   -4.087266    0.587711
 H     -3.390726   -2.673494    1.727269
 C     -3.248747   -5.807729   -0.499150
 H     -1.125893   -5.728839   -0.201851
 C     -4.471346   -5.217956   -0.219788
 H     -5.479698   -3.620669    0.812886
 H     -3.200072   -6.693233   -1.126441
 H     -5.385344   -5.639200   -0.628640
 C     -0.798840   -3.715907    2.872882
 C      0.381847   -3.071064    3.465448
 H     -0.776399   -4.784949    3.117874
 H     -1.688883   -3.286031    3.333633
 C      1.336622   -2.545567    3.969246
 H      2.180185   -2.103894    4.440829
 Cl    -1.903309   -1.888867   -1.422509
 Cl    -2.275393    0.135133    1.312996
 O     -0.732238    0.371344   -1.052998
 O      0.535330   -0.490548    0.637934
 C      0.378126    2.006926    0.037250
 C      1.559652    1.245871   -0.334133
 C      2.433555   -0.938939   -0.495985
 C     -1.863614    2.282731   -0.633331
 C     -2.038130    3.383893    0.194358
 C      0.318145    3.136954    0.825406
 C     -0.915912    3.765071    0.917495
 C      2.629093    1.756340   -1.056912
 C      3.623710    0.865029   -1.412291
 C      3.581822   -0.499955   -1.137556
 H     -0.983904    4.613616    1.578986
 H      4.465282    1.258884   -1.958844
 C      4.757175   -1.390934   -1.535586
 C      1.941107   -2.344204   -0.200526
 N     -0.732942    1.573772   -0.565204
 N      1.502766   -0.058721   -0.091603
 C     -2.767129    1.760156   -1.746255
 C     -3.367641    4.103204    0.417483
 C     -3.588073    5.151484   -0.675608
 C     -4.508328    3.088485    0.510475
 C     -3.343842    4.840079    1.766080
 H     -4.528585    5.670277   -0.500287
 H     -2.794209    5.897707   -0.660145
 H     -3.629434    4.733082   -1.671075
 H     -4.282577    2.318420    1.243836
 H     -5.417435    3.591808    0.829255
 H     -4.738182    2.601780   -0.420259
 H     -2.645531    5.673553    1.785472
 H     -4.328491    5.261163    1.956761
 H     -3.113097    4.175090    2.596540
 F     -3.433196    0.720635   -1.355545
 F     -1.992765    1.473043   -2.762456
 F     -3.592570    2.702541   -2.135348
 F      0.762750   -2.419414   -0.770595
 F      1.845849   -2.498067    1.079620
 F      2.685658   -3.285182   -0.702418
 C      5.237137   -2.178753   -0.312653
 C      4.356378   -2.269880   -2.724258
 C      5.957130   -0.548440   -1.994665
 H      5.594798   -1.500134    0.460450
 H      4.487396   -2.811313    0.131837
 H      6.068918   -2.820460   -0.593058
 H      3.510053   -2.910432   -2.532241
 H      4.111548   -1.651882   -3.587276
 H      5.190785   -2.908812   -3.005277
 H      6.292211    0.154391   -1.233849
 H      6.792419   -1.214079   -2.201635
 H      5.763561    0.001895   -2.912988
 C      2.702457    3.202688   -1.453665
 H      3.347451    3.315799   -2.323137
 H      1.717465    3.592691   -1.699070
 H      3.119474    3.801394   -0.642000
 C      1.497586    3.631301    1.612171
 H      2.324666    2.929108    1.578431
 H      1.834766    4.598259    1.232430
 H      1.204218    3.766497    2.654403
