81

 Si    -0.127468    0.945976    1.874970
 O      0.107145    2.368166    1.187890
 C      0.892335    3.493914    1.228263
 C      2.034342    3.263435    0.289596
 H      1.270548    3.651430    2.240966
 C      1.762835    2.666712   -0.929565
 C      3.343118    3.520292    0.651372
 C      2.790757    2.308408   -1.777403
 H      0.740467    2.454453   -1.188227
 C      4.380365    3.175425   -0.202183
 H      3.559830    3.977141    1.610448
 C      4.106973    2.564969   -1.413757
 H      2.568008    1.835427   -2.729051
 H      5.406806    3.378985    0.088059
 H      4.919587    2.294333   -2.081384
 C      0.024403    4.658821    0.825475
 C     -1.114300    4.807871    1.742149
 H      0.606440    5.588718    0.822372
 H     -0.346874    4.489733   -0.184278
 C     -2.037048    4.905231    2.503392
 H     -2.851272    5.018400    3.177991
 Cl     0.814173    1.271706    3.642324
 Cl    -1.984788    0.664776    2.585456
 O     -0.491999    0.514822    0.180814
 O      0.532273   -0.645904    1.825418
 C     -1.334427   -1.564604    0.206346
 C      0.056529   -1.955373    0.044217
 C      2.255224   -1.244556    0.492468
 C     -2.683404    0.323315   -0.244796
 C     -3.856782   -0.401309   -0.068181
 C     -2.446770   -2.363430    0.370034
 C     -3.682170   -1.739611    0.260140
 C      0.515060   -2.781221   -0.975935
 C      1.884261   -2.889249   -1.130753
 C      2.807154   -2.137054   -0.408894
 H     -4.552067   -2.353393    0.429973
 H      2.245451   -3.560301   -1.893580
 C      4.304405   -2.346180   -0.630123
 C      2.912449   -0.073577    1.194541
 N     -1.507395   -0.251445    0.011255
 N      0.940535   -1.265228    0.759565
 C     -2.468218    1.759667   -0.707113
 C     -5.259916    0.198261   -0.111976
 C     -5.297571    1.476031    0.729739
 C     -5.691984    0.413407   -1.564817
 C     -6.277801   -0.760881    0.523594
 H     -6.319960    1.839538    0.795870
 H     -4.950777    1.279533    1.741706
 H     -4.706797    2.282078    0.332612
 H     -5.040435    1.072287   -2.118936
 H     -5.733578   -0.536740   -2.096633
 H     -6.690096    0.845989   -1.589486
 H     -6.026814   -1.011450    1.552738
 H     -7.252256   -0.277742    0.541763
 H     -6.400894   -1.684346   -0.038177
 F     -1.465007    1.753922   -1.551135
 F     -2.199737    2.511546    0.307754
 F     -3.515360    2.216723   -1.344091
 F      3.136238   -0.358236    2.437006
 F      2.057073    0.911228    1.080227
 F      4.002158    0.305906    0.598941
 C      4.827477   -1.300328   -1.618171
 C      5.051064   -2.329520    0.705104
 C      4.554616   -3.733447   -1.243392
 H      4.328978   -1.398045   -2.581788
 H      4.691679   -0.283657   -1.279858
 H      5.892245   -1.453441   -1.782987
 H      5.046463   -1.374312    1.199677
 H      4.637849   -3.065925    1.391634
 H      6.093986   -2.587997    0.540322
 H      4.178764   -3.824349   -2.259687
 H      5.626745   -3.910134   -1.294671
 H      4.125554   -4.534442   -0.643486
 C     -2.343631   -3.816706    0.732189
 H     -2.787903   -4.442730   -0.044223
 H     -1.312533   -4.117572    0.889083
 H     -2.895248   -3.991323    1.658111
 C     -0.420302   -3.516838   -1.892526
 H     -0.764154   -4.442598   -1.428769
 H     -1.288925   -2.910210   -2.136921
 H      0.094298   -3.773172   -2.816610
