81

 Si     0.126776    0.975759    1.666364
 O      0.350737    2.307285    0.822357
 C     -0.043529    3.416643    0.139539
 C      0.879757    4.556990    0.460163
 H     -1.060431    3.690418    0.432967
 C      2.059655    4.310345    1.138688
 C      0.568364    5.855870    0.077765
 C      2.929248    5.347938    1.435861
 H      2.289989    3.305983    1.447292
 C      1.435416    6.896701    0.370329
 H     -0.358654    6.058055   -0.447703
 C      2.620130    6.644532    1.049257
 H      3.849999    5.141458    1.973536
 H      1.183595    7.909432    0.068243
 H      3.300038    7.459946    1.279352
 C     -0.012574    3.104808   -1.338565
 C     -0.883714    1.993951   -1.736380
 H     -0.314007    3.988282   -1.912651
 H      1.005166    2.857708   -1.619959
 C     -1.588586    1.099203   -2.113896
 H     -2.222003    0.341831   -2.496235
 Cl     1.805399    0.222800    2.477446
 Cl    -0.624651    1.822168    3.350477
 O     -1.063116   -0.256206    1.763006
 O      0.363270    0.220774    0.062130
 C     -1.077936   -1.865435    0.173409
 C      0.354385   -1.998233    0.382993
 C      2.324152   -0.829081   -0.190666
 C     -2.897406   -0.395855    0.453978
 C     -3.727373   -1.155261   -0.352890
 C     -1.793485   -2.599252   -0.764065
 C     -3.117342   -2.251233   -0.955967
 C      1.079466   -3.125510    0.713447
 C      2.460569   -3.026755    0.619369
 C      3.133127   -1.907806    0.142889
 H     -3.689043   -2.846451   -1.649954
 H      3.031485   -3.891164    0.918278
 C      4.658034   -1.886783    0.103095
 C      2.637528    0.485092   -0.892102
 N     -1.663601   -0.824884    0.759376
 N      1.013040   -0.882733    0.055031
 C     -3.135124    0.986758    1.031585
 C     -5.213353   -0.885512   -0.591719
 C     -5.904076   -0.517710    0.723339
 C     -5.379408    0.181798   -1.676841
 C     -5.906956   -2.162672   -1.093139
 H     -6.974252   -0.423683    0.557170
 H     -5.757853   -1.296854    1.469100
 H     -5.576229    0.414041    1.149164
 H     -4.948269   -0.156619   -2.618234
 H     -6.438275    0.364318   -1.849335
 H     -4.922497    1.128159   -1.427483
 H     -5.761444   -3.005846   -0.419877
 H     -6.978058   -1.982527   -1.153216
 H     -5.588748   -2.457964   -2.090245
 F     -2.024200    1.652214    0.832837
 F     -3.405029    0.891789    2.296132
 F     -4.081739    1.623705    0.405117
 F      1.756483    0.596746   -1.856876
 F      3.828060    0.489394   -1.429062
 F      2.524578    1.478536   -0.069839
 C      5.143872   -2.020548   -1.342639
 C      5.166184   -0.624976    0.805110
 C      5.239257   -3.074477    0.884450
 H      4.827381   -2.973689   -1.765200
 H      4.788836   -1.237775   -1.995710
 H      6.231369   -1.996915   -1.367607
 H      4.881284    0.293015    0.321166
 H      4.801480   -0.584295    1.829312
 H      6.252712   -0.638579    0.842171
 H      5.006654   -4.035795    0.431166
 H      6.323896   -2.990989    0.895510
 H      4.910351   -3.091682    1.921932
 C     -1.174847   -3.718714   -1.551607
 H     -1.700245   -3.836406   -2.497852
 H     -0.126649   -3.523176   -1.760444
 H     -1.250641   -4.660027   -1.004358
 C      0.425317   -4.377780    1.221369
 H      0.593488   -5.208770    0.533284
 H      0.867222   -4.645937    2.182862
 H     -0.642408   -4.241881    1.362901
