81

 Si     0.012640   -1.337224    1.482681
 O      1.530102   -2.276010    1.125371
 C      1.947877   -2.878521    0.150868
 C      3.300243   -3.378753    0.059761
 H      1.298028   -3.030451   -0.712665
 C      4.143594   -3.265798    1.164598
 C      3.765069   -3.920272   -1.135912
 C      5.449545   -3.691504    1.073620
 H      3.751347   -2.839871    2.078431
 C      5.079684   -4.343940   -1.228426
 H      3.099439   -4.001642   -1.989202
 C      5.915809   -4.228797   -0.126010
 H      6.112382   -3.610338    1.929536
 H      5.453932   -4.764424   -2.156921
 H      6.948191   -4.563303   -0.198261
 C     -1.589787   -1.937103   -2.196360
 C     -1.290484   -2.178803   -0.947026
 H     -2.546922   -1.518476   -2.479216
 H     -0.894065   -2.190116   -2.991678
 C     -0.970679   -2.421416    0.291656
 H     -1.268851   -3.395465    0.668327
 Cl     1.236431   -0.037515    2.613454
 Cl    -0.416952   -2.501946    3.133279
 O      0.451603   -0.421229   -0.029504
 O     -1.248417   -0.124203    1.704856
 C     -0.291803    1.661389    0.146395
 C     -1.594500    1.075815   -0.140117
 C     -3.273805   -0.354399    0.684576
 C      2.018274    1.222856    0.070373
 C      2.333041    2.509684    0.486325
 C     -0.067889    2.982769    0.481564
 C      1.248986    3.357266    0.680774
 C     -2.356173    1.389807   -1.248521
 C     -3.566043    0.729666   -1.380432
 C     -4.062950   -0.168605   -0.446259
 H      1.429478    4.373209    0.990100
 H     -4.140754    0.932273   -2.269145
 C     -5.358889   -0.923581   -0.756580
 C     -3.655057   -1.075196    1.974533
 N      0.738659    0.824251    0.039998
 N     -2.046310    0.182112    0.742696
 C      2.988068    0.161968   -0.414212
 C      3.740820    3.020081    0.798113
 C      4.585980    1.943694    1.479171
 C      4.392999    3.547254   -0.482503
 C      3.657730    4.185823    1.797560
 H      5.463546    2.402886    1.926453
 H      4.031620    1.452894    2.274037
 H      4.953741    1.191940    0.804213
 H      3.813873    4.367976   -0.904419
 H      5.387162    3.929283   -0.257415
 H      4.500729    2.790246   -1.247564
 H      3.123735    3.910425    2.705260
 H      4.664165    4.476017    2.090831
 H      3.195570    5.076854    1.380248
 F      2.402698   -0.618457   -1.289555
 F      3.420634   -0.562512    0.575184
 F      3.997860    0.736698   -1.024407
 F     -3.190759   -0.402170    2.987369
 F     -3.177217   -2.282858    1.944597
 F     -4.961991   -1.115298    2.095931
 C     -5.220993   -2.401665   -0.389013
 C     -6.544619   -0.241198   -0.069755
 C     -5.637806   -0.894262   -2.269246
 H     -4.335436   -2.833678   -0.848547
 H     -5.173300   -2.589611    0.667865
 H     -6.082852   -2.949795   -0.761027
 H     -6.464788   -0.213625    1.006950
 H     -6.653525    0.784370   -0.421032
 H     -7.463278   -0.770682   -0.315229
 H     -4.808484   -1.288639   -2.852955
 H     -6.502234   -1.519586   -2.480733
 H     -5.880960    0.097951   -2.641439
 C     -1.884596    2.356769   -2.295559
 H     -2.351514    3.333124   -2.145007
 H     -0.806497    2.480572   -2.270037
 H     -2.169400    1.997811   -3.284190
 C     -1.197564    3.953757    0.663785
 H     -0.937443    4.686606    1.426088
 H     -1.390184    4.490183   -0.268475
 H     -2.109513    3.446655    0.967130
