87

 Si    -0.268152   -1.011649   -0.668539
 O     -1.831545   -1.703677    0.012649
 C     -2.742205   -2.340649   -0.500672
 C     -3.798700   -2.968040    0.268290
 H     -2.785575   -2.444278   -1.587210
 C     -3.742010   -2.941393    1.663212
 C     -4.854955   -3.602225   -0.384526
 C     -4.738990   -3.541682    2.400885
 H     -2.901893   -2.454562    2.142617
 C     -5.858587   -4.201387    0.358206
 H     -4.887756   -3.621583   -1.469638
 C     -5.798062   -4.169426    1.744949
 H     -4.700214   -3.529480    3.485845
 H     -6.686537   -4.695020   -0.141766
 H     -6.585102   -4.642415    2.327808
 C     -0.866112   -4.905602   -1.496201
 C     -0.482343   -3.673971   -1.709980
 H     -1.873837   -5.231906   -1.740837
 H     -0.172384   -5.640267   -1.095415
 C     -0.126855   -2.430823   -1.895413
 H      0.268205   -2.183585   -2.877178
 Cl    -1.352575    0.151969   -2.110543
 Cl     0.675321   -1.986371    0.974138
 O     -0.517332    0.285484    0.537940
 O      1.211628   -0.232346   -1.226263
 C      0.723295    2.025540   -0.106251
 C      1.876929    1.234777    0.307330
 C      3.324924   -0.541246   -0.298320
 C     -1.605184    2.303614    0.191342
 C     -1.551553    3.558807   -0.439712
 C      0.843612    3.269072   -0.660226
 C     -0.313778    3.995151   -0.883105
 C      2.719444    1.645268    1.299202
 C      3.860554    0.896018    1.531978
 C      4.215294   -0.176600    0.732524
 H      1.821118    3.656218   -0.915928
 H     -0.219432    4.956322   -1.364842
 H      2.491776    2.534436    1.872007
 H      4.508079    1.210737    2.335384
 C      5.563059   -0.871189    0.993838
 C      3.656151   -1.517531   -1.393299
 N     -0.492584    1.548850    0.190664
 N      2.155797    0.119881   -0.383600
 C     -2.747752    1.823648    1.040705
 C     -2.779423    4.456267   -0.652064
 C     -3.949743    3.653544   -1.229851
 C     -3.155321    5.152519    0.662721
 C     -2.476431    5.561934   -1.675717
 H     -4.353274    2.920896   -0.544616
 H     -4.765592    4.325738   -1.489456
 H     -3.652722    3.130689   -2.137302
 H     -3.996945    5.824219    0.500781
 H     -3.443403    4.466160    1.452144
 H     -2.325573    5.750690    1.037436
 H     -2.140546    5.160164   -2.630038
 H     -3.384520    6.129467   -1.869047
 H     -1.736074    6.276368   -1.322632
 C      6.156508   -0.430609    2.342053
 C      5.409693   -2.393071    1.082719
 C      6.570656   -0.461165   -0.089392
 H      5.490046   -0.640882    3.176746
 H      7.077397   -0.981123    2.522919
 H      6.420184    0.624377    2.367808
 H      6.714520    0.618607   -0.098509
 H      7.538212   -0.918955    0.110259
 H      6.278816   -0.758309   -1.091084
 H      4.634900   -2.668087    1.796312
 H      5.172869   -2.862591    0.138309
 H      6.343074   -2.835255    1.426233
 C     -2.232599    1.499083    2.437953
 H     -3.402208    2.686100    1.130944
 C     -3.555235    0.680118    0.472444
 H     -3.074553    1.259981    3.087612
 H     -1.561348    0.651342    2.419194
 H     -1.712443    2.349502    2.878599
 H     -4.524610    0.642098    0.970132
 H     -3.721869    0.778242   -0.594906
 H     -3.045411   -0.243924    0.657820
 C      2.993259   -2.871518   -1.242064
 C      3.420682   -0.901768   -2.766110
 H      4.728624   -1.666565   -1.301708
 H      1.939135   -2.810940   -1.442466
 H      3.441623   -3.566136   -1.953090
 H      3.117693   -3.279237   -0.244076
 H      2.370601   -0.748541   -2.966764
 H      3.935309    0.053935   -2.864483
 H      3.822857   -1.570253   -3.527816
