87

 Si     0.131962   -1.746857   -0.456837
 O      1.436817   -1.171274    0.311369
 C      2.114149   -1.602377    1.450741
 C      3.532243   -1.872286    1.051603
 H      1.669674   -2.537612    1.791634
 C      3.737707   -2.889825    0.125903
 C      4.616680   -1.144381    1.508335
 C      5.005742   -3.165195   -0.349233
 H      2.889621   -3.464803   -0.221078
 C      5.895058   -1.419011    1.038542
 H      4.482516   -0.363890    2.245070
 C      6.091420   -2.424069    0.105660
 H      5.150838   -3.961709   -1.073268
 H      6.739212   -0.843784    1.408129
 H      7.090574   -2.638162   -0.263303
 C      1.914183   -0.575267    2.533611
 C      0.501587   -0.494102    2.935562
 H      2.503666   -0.836472    3.419563
 H      2.245581    0.401334    2.188718
 C     -0.647815   -0.439492    3.276581
 H     -1.658332   -0.393641    3.600180
 Cl     0.084335   -2.427363   -2.360800
 Cl     0.047547   -3.605448    0.419622
 O     -1.259898   -1.330418    0.419110
 O      0.006704   -0.141626   -1.196021
 C     -1.815908    0.867656    0.297851
 C     -0.423305    1.260908    0.482488
 C      1.635950    1.403082   -0.691127
 C     -3.449638   -0.836343    0.006947
 C     -4.456786    0.127409   -0.180090
 C     -2.776112    1.836753    0.160788
 C     -4.080703    1.457460   -0.093879
 C     -0.014964    2.198708    1.390409
 C      1.268443    2.701855    1.273829
 C      2.106073    2.363879    0.222140
 H     -2.495323    2.879296    0.224108
 H     -4.812680    2.240276   -0.222652
 H     -0.689228    2.533179    2.166972
 H      1.588231    3.425408    2.008265
 C      3.458987    3.079821    0.085464
 C      2.294849    1.046647   -1.993555
 N     -2.177871   -0.421048    0.188052
 N      0.439806    0.846330   -0.454266
 C     -3.700029   -2.315215    0.085139
 C     -5.928784   -0.216386   -0.459625
 C     -6.048338   -1.078672   -1.723139
 C     -6.560203   -0.883272    0.770337
 C     -6.752685    1.052088   -0.733325
 H     -5.560348   -2.041942   -1.649339
 H     -7.097587   -1.269778   -1.940527
 H     -5.625186   -0.562610   -2.583951
 H     -7.613474   -1.083422    0.581765
 H     -6.102953   -1.825849    1.046839
 H     -6.502793   -0.226547    1.637617
 H     -6.385941    1.613120   -1.590959
 H     -7.778092    0.766485   -0.958671
 H     -6.796902    1.720835    0.124036
 C      3.779452    3.904818    1.341776
 C      4.611567    2.083261   -0.070629
 C      3.391344    4.066307   -1.089215
 H      3.805567    3.296537    2.244289
 H      4.765221    4.352111    1.231617
 H      3.082936    4.725477    1.499823
 H      2.598068    4.797347   -0.937996
 H      4.329194    4.613439   -1.169541
 H      3.216779    3.589590   -2.047514
 H      4.662486    1.410988    0.780938
 H      4.550876    1.472984   -0.960512
 H      5.556238    2.621439   -0.119161
 C     -3.338175   -2.864043    1.457007
 H     -4.773039   -2.425048   -0.023133
 C     -3.059312   -3.070224   -1.062791
 H     -3.666683   -3.901209    1.520946
 H     -2.274463   -2.837534    1.636071
 H     -3.844929   -2.309017    2.246461
 H     -3.432633   -4.093027   -1.071308
 H     -3.301274   -2.619769   -2.023401
 H     -1.989910   -3.112567   -0.960612
 C      2.895985   -0.340457   -2.024991
 C      1.343508    1.293024   -3.157031
 H      3.107174    1.759292   -2.099627
 H      2.129603   -1.093144   -2.061728
 H      3.510492   -0.439113   -2.919519
 H      3.520355   -0.530550   -1.163608
 H      0.528428    0.584871   -3.163111
 H      0.933930    2.302616   -3.128110
 H      1.892937    1.189218   -4.092726
