87

 Si    -0.352890    0.906327    1.631262
 O      0.182703    2.142071    0.746587
 C      0.974618    3.274454    0.855540
 C      2.082014    3.167724   -0.152655
 H      1.394500    3.336568    1.862333
 C      1.845290    2.489552   -1.338048
 C      3.332309    3.720487    0.082027
 C      2.851083    2.345751   -2.278912
 H      0.869158    2.061992   -1.507591
 C      4.342725    3.584678   -0.859868
 H      3.523112    4.254345    1.007191
 C      4.105742    2.894293   -2.039723
 H      2.655993    1.810056   -3.203566
 H      5.320006    4.019238   -0.668366
 H      4.897252    2.787639   -2.776332
 C      0.116095    4.495204    0.608513
 C     -0.978577    4.596899    1.586090
 H      0.731544    5.401006    0.670654
 H     -0.302374    4.443777   -0.397796
 C     -1.865452    4.659680    2.392635
 H     -2.647916    4.729349    3.109620
 Cl     0.512263    1.441945    3.420668
 Cl    -2.239220    0.802814    2.351401
 O     -0.800026    0.297377    0.012106
 O      0.437556   -0.600427    1.792766
 C     -1.557890   -1.781878    0.345708
 C     -0.159138   -2.190531    0.276279
 C      2.122360   -1.783369    0.803645
 C     -3.012390   -0.082096   -0.459530
 C     -4.127387   -0.911239   -0.239488
 C     -2.605767   -2.637115    0.543734
 C     -3.886884   -2.164237    0.300777
 C      0.196290   -3.235218   -0.537719
 C      1.535836   -3.528758   -0.706306
 C      2.531300   -2.814435   -0.060544
 H     -2.425596   -3.649838    0.880450
 H     -4.710936   -2.833369    0.497195
 H     -0.571248   -3.788188   -1.062323
 H      1.790774   -4.339531   -1.371743
 C      4.001591   -3.184799   -0.313945
 C      3.054295   -0.997092    1.679206
 N     -1.813822   -0.525029   -0.052358
 N      0.806154   -1.499391    0.904087
 C     -3.001244    1.208530   -1.228907
 C     -5.566981   -0.485097   -0.551762
 C     -6.578958   -1.492696    0.014223
 C     -5.880599    0.859453    0.114714
 C     -5.783090   -0.443906   -2.070621
 H     -6.486156   -1.613858    1.092031
 H     -7.587029   -1.131880   -0.179553
 H     -6.504684   -2.473420   -0.451335
 H     -6.926309    1.116000   -0.044431
 H     -5.715171    0.807175    1.189592
 H     -5.290546    1.681816   -0.267040
 H     -5.592181   -1.419324   -2.516744
 H     -6.815999   -0.179823   -2.291068
 H     -5.154644    0.276752   -2.582053
 C      4.121458   -4.282933   -1.382868
 C      4.768211   -1.973937   -0.863131
 C      4.635787   -3.755982    0.961684
 H      3.701413   -3.983108   -2.341225
 H      5.174500   -4.497055   -1.553327
 H      3.657958   -5.219666   -1.079697
 H      4.097672   -4.642035    1.296271
 H      5.663225   -4.054281    0.760581
 H      4.663739   -3.060998    1.792071
 H      4.315188   -1.616883   -1.787000
 H      4.818412   -1.135012   -0.181089
 H      5.793288   -2.260040   -1.091428
 C     -2.041894    1.070903   -2.404596
 H     -4.002301    1.310254   -1.638196
 C     -2.706211    2.447817   -0.410413
 H     -2.124208    1.947800   -3.045923
 H     -1.019002    0.996506   -2.063812
 H     -2.275427    0.197996   -3.014434
 H     -2.868870    3.323407   -1.037363
 H     -3.359277    2.533446    0.451042
 H     -1.687169    2.456456   -0.071561
 C      3.075035    0.469230    1.301097
 C      2.784986   -1.260898    3.152873
 H      4.042881   -1.388744    1.468549
 H      2.143813    0.951252    1.524892
 H      3.853933    0.975104    1.866803
 H      3.289285    0.602366    0.245758
 H      1.841234   -0.848251    3.473791
 H      2.795848   -2.329826    3.365018
 H      3.575037   -0.799297    3.744926
