87

 Si     0.038004   -0.907247    0.113792
 O      0.369978   -2.488382    0.170206
 C      1.309654   -3.363276    0.706802
 C      2.371797   -3.613854   -0.323117
 H      1.763818   -2.925791    1.597174
 C      2.012661   -3.678021   -1.660705
 C      3.702213   -3.766162    0.037890
 C      2.974103   -3.881563   -2.635915
 H      0.974196   -3.551156   -1.932274
 C      4.669395   -3.976718   -0.935104
 H      3.987965   -3.716211    1.083318
 C      4.307658   -4.032009   -2.273340
 H      2.682376   -3.925755   -3.681248
 H      5.709707   -4.095413   -0.645037
 H      5.064429   -4.195263   -3.035629
 C      0.575117   -4.625009    1.095505
 C     -0.351618   -4.382070    2.215209
 H      1.285503   -5.404185    1.397195
 H      0.016665   -4.988762    0.231436
 C     -1.084285   -4.165980    3.142067
 H     -1.730585   -4.002016    3.970368
 Cl     1.322271   -0.441788    1.710361
 Cl    -1.187073   -1.318290   -1.548260
 O      0.553987    0.393861   -0.865122
 O     -1.152639   -0.117635    1.034330
 C     -0.178783    2.181206    0.270819
 C     -1.523263    1.760066   -0.140364
 C     -3.280263    0.184156    0.215480
 C      2.153316    1.882562   -0.139877
 C      2.457423    2.957346    0.713130
 C      0.066000    3.268202    1.058577
 C      1.389829    3.611672    1.303982
 C     -2.320056    2.510329   -0.955942
 C     -3.594476    2.038095   -1.241241
 C     -4.114998    0.890695   -0.667474
 H     -0.754945    3.830343    1.484599
 H      1.571567    4.448825    1.961481
 H     -1.951518    3.437532   -1.375219
 H     -4.199773    2.621422   -1.919028
 C     -5.537508    0.439652   -1.020173
 C     -3.697158   -0.924079    1.144784
 N      0.870975    1.511827   -0.232277
 N     -2.019222    0.613536    0.353092
 C      3.097067    1.190708   -1.087075
 C      3.892017    3.402413    1.019115
 C      4.718428    2.202608    1.498194
 C      4.508928    4.080586   -0.211209
 C      3.921033    4.431863    2.158068
 H      4.836126    1.429017    0.750388
 H      5.717845    2.529247    1.779790
 H      4.262355    1.743771    2.373926
 H      5.515799    4.423797    0.020416
 H      4.585248    3.430791   -1.075852
 H      3.925635    4.951742   -0.507421
 H      3.475606    4.049755    3.074893
 H      4.955206    4.681201    2.386999
 H      3.426078    5.365033    1.896375
 C     -6.106803    1.264864   -2.183438
 C     -5.521749   -1.019321   -1.492179
 C     -6.472313    0.654588    0.177473
 H     -5.491485    1.200054   -3.079087
 H     -7.090409    0.880184   -2.445330
 H     -6.240482    2.314989   -1.931192
 H     -6.497200    1.704592    0.466956
 H     -7.487292    0.363610   -0.087766
 H     -6.196389    0.081692    1.055706
 H     -4.851914   -1.144479   -2.341330
 H     -5.212357   -1.720689   -0.728342
 H     -6.518948   -1.315590   -1.812523
 C      2.622042    1.456786   -2.512694
 H      4.054187    1.688310   -0.962155
 C      3.318351   -0.289193   -0.835991
 H      3.355508    1.067288   -3.218051
 H      1.675518    0.969454   -2.708622
 H      2.514374    2.524201   -2.706623
 H      4.141172   -0.625374   -1.465233
 H      3.577316   -0.491510    0.197337
 H      2.452239   -0.878124   -1.090841
 C     -3.051992   -2.274493    0.893291
 C     -3.494685   -0.454369    2.582252
 H     -4.765510   -1.042820    0.990721
 H     -2.006545   -2.287638    1.155691
 H     -3.558529   -3.013762    1.512837
 H     -3.143811   -2.582149   -0.143119
 H     -2.444761   -0.340281    2.817647
 H     -4.000793    0.493146    2.768651
 H     -3.916552   -1.191185    3.265098
