87

 Si    -0.549371    1.216541    1.646996
 O      0.049647    2.412778    0.735954
 C      0.058064    2.896498   -0.562926
 C      1.258905    2.347354   -1.283764
 H     -0.827887    2.543914   -1.085484
 C      2.441328    3.058681   -1.413247
 C      1.185338    1.069208   -1.821159
 C      3.524707    2.513195   -2.087318
 H      2.526236    4.053492   -0.997007
 C      2.259956    0.517266   -2.495195
 H      0.270235    0.514675   -1.720909
 C      3.433922    1.243994   -2.637607
 H      4.439519    3.090182   -2.189332
 H      2.174989   -0.471984   -2.932898
 H      4.273793    0.825780   -3.184755
 C     -0.001414    4.402346   -0.476654
 C     -1.254725    4.846683    0.154938
 H      0.072957    4.853992   -1.473434
 H      0.832289    4.760951    0.127576
 C     -2.275294    5.202683    0.677480
 H     -3.175776    5.534583    1.136747
 Cl     0.133067    2.094900    3.373946
 Cl    -2.363521    0.773061    2.444364
 O     -0.992023    0.507903    0.072287
 O      0.464587   -0.125569    1.885302
 C     -1.097386   -1.700073    0.375205
 C      0.356976   -1.681627    0.245802
 C      2.450158   -0.851801    1.011656
 C     -3.054036   -0.480456   -0.199886
 C     -3.854816   -1.599128    0.094988
 C     -1.825859   -2.831839    0.612422
 C     -3.207816   -2.745851    0.524527
 C      0.984707   -2.513720   -0.641459
 C      2.366370   -2.498532   -0.706096
 C      3.135900   -1.702527    0.125531
 H     -1.326854   -3.756570    0.871472
 H     -3.779263   -3.631152    0.759290
 H      0.396879   -3.166670   -1.273057
 H      2.838819   -3.158432   -1.417649
 C      4.667533   -1.839617    0.080335
 C      3.120847    0.027179    2.027082
 N     -1.741755   -0.564302    0.068745
 N      1.101203   -0.850120    0.993512
 C     -3.500014    0.741201   -0.956255
 C     -5.384529   -1.590364   -0.016389
 C     -5.962926   -0.388440    0.739957
 C     -5.808668   -1.607958   -1.491028
 C     -5.992200   -2.841113    0.636517
 H     -5.681271    0.567894    0.319745
 H     -7.050321   -0.432523    0.728618
 H     -5.644485   -0.395640    1.781016
 H     -6.894253   -1.645513   -1.563803
 H     -5.482928   -0.738090   -2.050609
 H     -5.415405   -2.488619   -1.997645
 H     -5.715640   -2.938401    1.684857
 H     -7.077395   -2.771384    0.599024
 H     -5.722310   -3.760913    0.121615
 C      5.104906   -2.782034   -1.052310
 C      5.355213   -0.499439   -0.202013
 C      5.154922   -2.473429    1.391543
 H      4.795129   -2.427051   -2.033561
 H      6.191206   -2.840275   -1.065469
 H      4.741744   -3.799422   -0.921787
 H      4.703264   -3.453389    1.540833
 H      6.233923   -2.613457    1.356882
 H      4.938131   -1.877800    2.270878
 H      4.994252   -0.068738   -1.131159
 H      5.221690    0.243557    0.572217
 H      6.427155   -0.656296   -0.305325
 C     -2.724628    0.783480   -2.268293
 H     -4.540974    0.561021   -1.208007
 C     -3.442374    2.061658   -0.217234
 H     -3.102595    1.590655   -2.894360
 H     -1.673241    0.957178   -2.095368
 H     -2.835414   -0.144692   -2.828779
 H     -3.838256    2.838198   -0.870234
 H     -4.044450    2.046954    0.685423
 H     -2.437971    2.333453    0.051462
 C      2.978606    1.491335    1.660567
 C      2.709147   -0.313336    3.450940
 H      4.174427   -0.217031    1.953070
 H      3.531508    2.096532    2.376219
 H      3.387059    1.683615    0.673624
 H      1.954646    1.816818    1.675258
 H      1.705227    0.006371    3.679112
 H      2.791485   -1.384123    3.635116
 H      3.387475    0.191677    4.138812
