73

 Si    -0.128624   -1.817485   -0.031949
 O      1.320563   -1.253407    0.399681
 C      2.284552   -1.618636    1.327914
 C      3.504378   -2.021300    0.554664
 H      1.922760   -2.479168    1.895729
 C      3.317052   -2.953277   -0.459312
 C      4.769579   -1.503734    0.771676
 C      4.372855   -3.351473   -1.257105
 H      2.331154   -3.364164   -0.619844
 C      5.836409   -1.901698   -0.024666
 H      4.942632   -0.789567    1.565634
 C      5.640529   -2.820631   -1.042771
 H      4.209560   -4.081087   -2.045056
 H      6.825027   -1.489384    0.156756
 H      6.474816   -3.130904   -1.665697
 C      2.454973   -0.462627    2.279673
 C      1.159866   -0.073837    2.856598
 H      3.139059   -0.727022    3.093959
 H      2.874969    0.392731    1.757559
 C      0.092899    0.230292    3.313930
 H     -0.841220    0.491104    3.747010
 Cl    -0.576624   -2.726066   -1.777066
 Cl    -0.176501   -3.485240    1.161068
 O     -1.395796   -1.121621    0.872001
 O     -0.229425   -0.298327   -0.976265
 C     -2.145029    0.913876    0.183588
 C     -0.790008    1.422410    0.357434
 C      1.399844    1.249452   -0.527114
 C     -3.537779   -1.005854    0.083556
 C     -4.620775   -0.244506   -0.375744
 C     -3.185696    1.704459   -0.240223
 C     -4.411043    1.118151   -0.516360
 C     -0.448226    2.558638    1.045800
 C      0.846855    3.039331    0.934560
 C      1.787634    2.433875    0.116113
 H     -3.024143    2.765263   -0.383610
 H     -5.212764    1.753837   -0.865385
 H     -1.191664    3.068129    1.646036
 H      1.104333    3.938080    1.477097
 C      3.158448    3.060409   -0.134961
 C      2.202838    0.487431   -1.425565
 N     -2.358050   -0.400260    0.339287
 N      0.150287    0.784442   -0.354768
 C     -3.557039   -2.411349    0.334035
 C     -5.962753   -0.895046   -0.701655
 C     -6.531095   -1.537185    0.568305
 C     -6.977339    0.135813   -1.206173
 C     -5.755691   -1.935776   -1.807493
 H     -6.692813   -0.793678    1.347900
 H     -7.491865   -2.001716    0.354327
 H     -5.879999   -2.305780    0.968709
 H     -7.915405   -0.367076   -1.433198
 H     -7.198009    0.900620   -0.463207
 H     -6.649898    0.627349   -2.120910
 H     -6.704189   -2.405540   -2.061146
 H     -5.364302   -1.474941   -2.713487
 H     -5.071251   -2.722161   -1.511161
 C     -3.526115   -3.588734    0.555485
 H     -3.491863   -4.637852    0.744368
 C      2.832976   -0.165478   -2.206851
 H      3.412216   -0.734876   -2.896532
 C      4.274243    2.087571    0.249272
 C      3.246981    3.429222   -1.621119
 C      3.350282    4.340045    0.685669
 H      4.189667    1.135324   -0.258393
 H      5.241469    2.512140   -0.012836
 H      4.283639    1.903087    1.321132
 H      3.167253    2.559206   -2.263167
 H      2.460875    4.128755   -1.902258
 H      4.201294    3.907931   -1.832884
 H      3.288295    4.158562    1.757511
 H      4.339889    4.747272    0.486905
 H      2.630043    5.113659    0.424991
