73

 Si    -0.258513    1.054511    1.080036
 O      0.161499    1.974176   -0.174139
 C      0.376755    3.342249   -0.325175
 C     -0.887265    4.085652   -0.006022
 H      1.169471    3.666244    0.353874
 C     -2.088105    3.594612   -0.491788
 C     -0.880949    5.232824    0.770528
 C     -3.279616    4.233322   -0.199630
 H     -2.078767    2.695974   -1.088567
 C     -2.071628    5.883261    1.061391
 H      0.054702    5.618950    1.159198
 C     -3.272318    5.383962    0.579404
 H     -4.216802    3.837006   -0.578233
 H     -2.059885    6.781200    1.672545
 H     -4.204696    5.890951    0.811055
 C      0.808761    3.567452   -1.754545
 C      2.078031    2.892124   -2.073113
 H      0.928987    4.640174   -1.950954
 H      0.032211    3.187666   -2.420143
 C      3.118564    2.357580   -2.345211
 H      4.044188    1.911406   -2.613593
 Cl    -2.158101    0.826883    1.740919
 Cl     0.334659    2.273434    2.629758
 O     -0.521904   -0.159908   -0.246589
 O      0.848317   -0.124828    1.637313
 C     -0.394180   -2.263078    0.580788
 C      1.050159   -2.088080    0.496225
 C      2.880486   -0.593351    0.708431
 C     -2.438528   -1.406877   -0.250287
 C     -3.135073   -2.540408    0.189692
 C     -1.025463   -3.404737    1.010406
 C     -2.397979   -3.512884    0.847877
 C      1.872001   -3.028809   -0.078125
 C      3.218743   -2.746312   -0.232699
 C      3.760791   -1.528115    0.148055
 H     -0.445836   -4.193943    1.472944
 H     -2.888295   -4.401383    1.219681
 H      1.451713   -3.966985   -0.417264
 H      3.849900   -3.500801   -0.680962
 C      5.250527   -1.227655   -0.003816
 C      3.228322    0.724833    1.130356
 N     -1.126882   -1.278332    0.033963
 N      1.581736   -0.923175    0.889560
 C     -2.981238   -0.350012   -1.048671
 C     -4.637059   -2.676640   -0.035908
 C     -4.913175   -2.753438   -1.541150
 C     -5.189815   -3.948401    0.614853
 C     -5.345504   -1.475687    0.600167
 H     -4.424611   -3.618513   -1.988178
 H     -5.982150   -2.851839   -1.720953
 H     -4.573782   -1.868451   -2.067075
 H     -6.264130   -3.998220    0.448020
 H     -4.759883   -4.854144    0.190287
 H     -5.032919   -3.964041    1.692200
 H     -6.421810   -1.560464    0.462475
 H     -5.153247   -1.427855    1.670845
 H     -5.033588   -0.533835    0.164911
 C     -3.392514    0.511045   -1.773233
 H     -3.780086    1.267413   -2.416484
 C      3.483127    1.845757    1.468284
 H      3.712178    2.842566    1.769802
 C      5.433829   -0.033179   -0.942485
 C      5.840910   -0.940235    1.381272
 C      6.005271   -2.419835   -0.600627
 H      4.941245    0.857818   -0.572759
 H      6.491942    0.197284   -1.052998
 H      5.039901   -0.250967   -1.934024
 H      5.381493   -0.080268    1.854938
 H      5.721124   -1.794408    2.046434
 H      6.906963   -0.737105    1.298317
 H      5.657325   -2.674427   -1.600444
 H      7.060612   -2.167927   -0.685655
 H      5.939859   -3.308778    0.024690
