73

 Si    -0.086096   -1.534278   -0.257610
 O      1.387915   -0.975219    0.074070
 C      2.550772   -1.191327    0.778484
 C      3.358695   -2.310263    0.185524
 H      3.125364   -0.264299    0.664518
 C      2.894845   -2.987953   -0.927798
 C      4.600177   -2.645692    0.713583
 C      3.647514   -3.996909   -1.506760
 H      1.937519   -2.733526   -1.347370
 C      5.357886   -3.653783    0.139803
 H      4.983792   -2.115300    1.577330
 C      4.882140   -4.335119   -0.972799
 H      3.263192   -4.520189   -2.377354
 H      6.325244   -3.907796    0.564047
 H      5.474257   -5.127111   -1.422290
 C      2.256151   -1.372644    2.250211
 C      1.409954   -0.284011    2.764992
 H      3.191333   -1.387620    2.819968
 H      1.740182   -2.316325    2.415366
 C      0.716601    0.594901    3.199092
 H      0.115038    1.352452    3.635926
 Cl    -0.733392   -2.359426   -1.982432
 Cl    -0.007456   -3.257814    0.843008
 O     -1.245081   -0.872293    0.799506
 O     -0.266402    0.019742   -1.129803
 C     -2.074768    1.169035    0.231728
 C     -0.712459    1.680793    0.314912
 C      1.416905    1.519522   -0.708623
 C     -3.455349   -0.762138    0.219981
 C     -4.580021   -0.002306   -0.129370
 C     -3.153721    1.957885   -0.083274
 C     -4.393916    1.364316   -0.262593
 C     -0.313216    2.780845    1.029756
 C      0.989609    3.230941    0.883120
 C      1.877961    2.638249   -0.000447
 H     -3.013727    3.022956   -0.217957
 H     -5.228323    1.998404   -0.527928
 H     -1.013292    3.276128    1.691036
 H      1.299978    4.088740    1.462862
 C      3.284913    3.189505   -0.219359
 C      2.139606    0.808448   -1.712609
 N     -2.262259   -0.150370    0.378696
 N      0.169494    1.070178   -0.488467
 C     -3.444070   -2.170834    0.451469
 C     -5.940176   -0.659421   -0.349739
 C     -6.393633   -1.325391    0.953742
 C     -7.001569    0.369996   -0.749912
 C     -5.820431   -1.681469   -1.485472
 H     -6.493299   -0.595037    1.755845
 H     -7.365591   -1.795125    0.815049
 H     -5.704862   -2.093965    1.285209
 H     -7.952276   -0.137178   -0.902761
 H     -7.163297    1.122279    0.020529
 H     -6.757682    0.877533   -1.681860
 H     -6.783615   -2.155608   -1.664809
 H     -5.511215   -1.203705   -2.414173
 H     -5.107550   -2.466378   -1.261052
 C     -3.389475   -3.350551    0.655046
 H     -3.334400   -4.401635    0.827282
 C      2.698576    0.191845   -2.573863
 H      3.213459   -0.341389   -3.340431
 C      4.318241    2.102940    0.087884
 C      3.405058    3.667377   -1.670859
 C      3.570377    4.381025    0.700471
 H      4.211504    1.238775   -0.556336
 H      5.323850    2.493340   -0.056929
 H      4.243135    1.768070    1.120990
 H      3.245051    2.863882   -2.380975
 H      2.685786    4.456316   -1.887184
 H      4.399241    4.072391   -1.851169
 H      3.504601    4.115758    1.754489
 H      4.583766    4.736179    0.522980
 H      2.902935    5.220652    0.513865
