73

 Si     0.414957   -1.285314    1.446591
 O     -0.343433   -2.154720    0.327202
 C     -1.211339   -3.231396    0.257298
 C     -2.502704   -2.747610   -0.333549
 H     -1.388721   -3.637370    1.255885
 C     -2.450797   -1.840756   -1.381697
 C     -3.731749   -3.180499    0.137497
 C     -3.615654   -1.370941   -1.961287
 H     -1.485657   -1.508469   -1.736823
 C     -4.904899   -2.710128   -0.439046
 H     -3.777552   -3.891360    0.956007
 C     -4.848981   -1.807300   -1.489416
 H     -3.564459   -0.668902   -2.788276
 H     -5.865395   -3.055893   -0.066775
 H     -5.766416   -1.444109   -1.943971
 C     -0.560033   -4.289130   -0.607411
 C      0.721692   -4.732986   -0.034696
 H     -1.221100   -5.157338   -0.717651
 H     -0.380331   -3.871327   -1.599463
 C      1.765177   -5.074531    0.451652
 H      2.681616   -5.395376    0.885816
 Cl    -0.489454   -2.050051    3.131783
 Cl     2.311527   -1.597781    2.078604
 O      0.965147   -0.414400   -0.042358
 O     -0.152505    0.274590    1.874908
 C      1.700564    1.661288    0.459247
 C      0.289520    2.029273    0.476981
 C     -1.935957    1.380784    0.987321
 C      3.191623   -0.008830   -0.321420
 C      4.295709    0.828626   -0.117749
 C      2.748754    2.525267    0.664800
 C      4.039026    2.086239    0.407040
 C     -0.179985    3.137312   -0.189137
 C     -1.543303    3.372072   -0.242345
 C     -2.458216    2.505216    0.335478
 H      2.553997    3.527504    1.025828
 H      4.856864    2.766732    0.598032
 H      0.522844    3.800149   -0.677420
 H     -1.889303    4.252589   -0.765313
 C     -3.960640    2.776970    0.297579
 C     -2.706635    0.363987    1.626049
 N      1.963320    0.414913    0.035054
 N     -0.595916    1.206090    1.057659
 C      3.209580   -1.311165   -0.912919
 C      5.707311    0.353454   -0.441957
 C      5.808048    0.069237   -1.944312
 C      6.753505    1.413679   -0.085628
 C      6.004695   -0.904347    0.381609
 H      5.610497    0.966578   -2.529657
 H      6.811202   -0.271131   -2.194308
 H      5.113334   -0.699275   -2.263790
 H      7.745204    1.032883   -0.322329
 H      6.621905    2.334110   -0.652357
 H      6.750258    1.658563    0.975283
 H      7.013278   -1.257554    0.174933
 H      5.939584   -0.700049    1.449211
 H      5.321246   -1.714628    0.156129
 C      3.147741   -2.392197   -1.426213
 H      3.110601   -3.358785   -1.873822
 C     -3.325526   -0.508200    2.166078
 H     -3.875282   -1.286087    2.643603
 C     -4.667257    1.630711   -0.429195
 C     -4.471876    2.921731    1.735394
 C     -4.276062    4.076927   -0.449303
 H     -4.504662    0.674936    0.051378
 H     -5.740608    1.808658   -0.452064
 H     -4.326030    1.550169   -1.459173
 H     -4.317186    2.022076    2.319842
 H     -3.977861    3.745455    2.249084
 H     -5.540002    3.130743    1.732800
 H     -3.956006    4.046848   -1.489608
 H     -5.352848    4.234838   -0.451958
 H     -3.827986    4.948738    0.024741
