73

 Si    -0.353903   -2.066357   -0.631205
 O      1.215904   -1.914327   -0.303856
 C      2.235760   -2.041343    0.618577
 C      1.955122   -1.154170    1.799857
 H      3.131866   -1.669890    0.112726
 C      0.712849   -1.185456    2.408898
 C      2.915543   -0.274415    2.275710
 C      0.409207   -0.320042    3.443180
 H     -0.021607   -1.890244    2.064376
 C      2.626636    0.586732    3.324284
 H      3.899810   -0.256425    1.826410
 C      1.366323    0.575301    3.903026
 H     -0.575728   -0.353316    3.899003
 H      3.388937    1.270590    3.686940
 H      1.133755    1.253965    4.719056
 C      2.490720   -3.479451    0.998971
 C      2.775421   -4.282560   -0.200451
 H      3.350817   -3.530116    1.678146
 H      1.624181   -3.892884    1.511532
 C      3.002323   -4.909848   -1.198573
 H      3.208734   -5.492082   -2.064725
 Cl    -1.114197   -2.740844   -2.371369
 Cl    -0.753176   -3.732152    0.497985
 O     -1.320704   -1.149091    0.433451
 O     -0.178075   -0.498819   -1.478715
 C     -1.449016    1.094199    0.070766
 C      0.007716    1.150574    0.045570
 C      1.876514    0.467714   -1.239888
 C     -3.377379   -0.288229   -0.024102
 C     -4.213602    0.819106   -0.211481
 C     -2.233695    2.212364   -0.087473
 C     -3.604817    2.064782   -0.223115
 C      0.782949    2.052366    0.730238
 C      2.126898    2.152752    0.411370
 C      2.702335    1.400210   -0.601237
 H     -1.765712    3.187134   -0.138845
 H     -4.201913    2.955273   -0.361903
 H      0.334130    2.677942    1.490840
 H      2.725980    2.868132    0.955882
 C      4.149722    1.605172   -1.042618
 C      2.256391   -0.402036   -2.304663
 N     -2.046658   -0.104140    0.115997
 N      0.587650    0.365244   -0.872959
 C     -3.797613   -1.651272    0.051084
 C     -5.719774    0.649906   -0.390390
 C     -6.304119   -0.000178    0.868246
 C     -6.414945    1.999500   -0.594184
 C     -5.979616   -0.210421   -1.631762
 H     -6.131179    0.617917    1.748463
 H     -7.380212   -0.123096    0.760648
 H     -5.882244   -0.980329    1.059623
 H     -7.483161    1.836109   -0.723233
 H     -6.295492    2.662288    0.261461
 H     -6.062179    2.518033   -1.484280
 H     -7.050261   -0.335664   -1.782630
 H     -5.574330    0.257768   -2.527856
 H     -5.544833   -1.199697   -1.546305
 C     -4.088177   -2.812479    0.111777
 H     -4.343189   -3.847252    0.157490
 C      2.513564   -1.152140   -3.202272
 H      2.762646   -1.809539   -4.004087
 C      4.936762    0.296701   -0.937755
 C      4.136723    2.111262   -2.490582
 C      4.857793    2.649886   -0.174662
 H      4.494847   -0.502566   -1.519587
 H      5.950489    0.444866   -1.304900
 H      5.012504   -0.040325    0.092844
 H      3.684585    1.394897   -3.168042
 H      3.589588    3.049126   -2.577434
 H      5.153218    2.292948   -2.834963
 H      4.893600    2.360484    0.874287
 H      5.886799    2.759545   -0.511997
 H      4.394194    3.632407   -0.244615
