73

 Si    -0.180908   -1.241157    0.877404
 O      1.340834   -2.115483    0.300816
 C      1.722111   -2.618105   -0.743362
 C      3.013520   -3.270257   -0.886703
 H      1.077497   -2.587426   -1.626602
 C      3.860405   -3.368965    0.218324
 C      3.395062   -3.798350   -2.119192
 C      5.085472   -3.987249    0.089914
 H      3.536095   -2.949212    1.161891
 C      4.626838   -4.419023   -2.247143
 H      2.727503   -3.720883   -2.971950
 C      5.466455   -4.511859   -1.145043
 H      5.749662   -4.067809    0.945091
 H      4.932697   -4.832044   -3.203741
 H      6.432967   -5.000300   -1.245635
 C      3.446798   -0.646515    2.573790
 C      2.190359   -0.425457    2.290212
 H      4.244967   -0.127278    2.054432
 H      3.712628   -1.337200    3.370165
 C      0.931780   -0.219695    2.013121
 H      0.456346    0.560001    2.602290
 Cl    -1.332327   -2.262460   -0.589422
 Cl    -0.515597   -2.709419    2.319974
 O     -1.507122   -0.165643    1.361449
 O      0.108195   -0.090854   -0.493794
 C     -2.134211    1.213062   -0.306586
 C     -0.862779    1.895249   -0.081484
 C      1.493291    1.709474   -0.162585
 C     -3.601112   -0.475813    0.471293
 C     -4.554427   -0.143153   -0.501632
 C     -3.046512    1.597197   -1.255439
 C     -4.239205    0.896261   -1.359700
 C     -0.764206    3.231036    0.222333
 C      0.491455    3.797835    0.364273
 C      1.650073    3.064586    0.160124
 H     -2.817929    2.425669   -1.913897
 H     -4.938743    1.191250   -2.128971
 H     -1.666437    3.815368    0.353776
 H      0.553272    4.845274    0.622506
 C      3.032781    3.701284    0.276036
 C      2.559528    0.815734   -0.501490
 N     -2.422741    0.177564    0.495317
 N      0.258187    1.171114   -0.225597
 C     -3.769741   -1.449018    1.502063
 C     -5.868164   -0.910952   -0.607057
 C     -6.676537   -0.707384    0.678243
 C     -6.715192   -0.416034   -1.783380
 C     -5.556065   -2.392895   -0.840515
 H     -6.913179    0.344837    0.832415
 H     -7.618410   -1.249829    0.618513
 H     -6.149330   -1.063820    1.555527
 H     -7.633370   -0.998271   -1.834301
 H     -7.006134    0.627838   -1.676926
 H     -6.207681   -0.536226   -2.739159
 H     -6.480186   -2.961145   -0.930800
 H     -4.990150   -2.534660   -1.759851
 H     -4.982246   -2.826322   -0.030187
 C     -3.882570   -2.228490    2.404696
 H     -3.983668   -2.929622    3.200949
 C      3.449833    0.086627   -0.833702
 H      4.252740   -0.550241   -1.120136
 C      3.842583    2.953296    1.339011
 C      3.724875    3.650779   -1.090221
 C      2.941473    5.169522    0.704470
 H      3.984319    1.909495    1.090391
 H      4.828679    3.401743    1.444703
 H      3.354520    2.999124    2.311029
 H      3.855413    2.636334   -1.448773
 H      3.156626    4.200524   -1.839539
 H      4.711710    4.105911   -1.027821
 H      2.462334    5.289327    1.674747
 H      3.945616    5.580299    0.791725
 H      2.409377    5.782905   -0.020676
