73

 Si     0.617463   -0.485030    1.950582
 O      0.730857   -1.786347    1.002832
 C      1.226884   -2.100254   -0.246166
 C      2.106947   -3.314765   -0.137204
 H      1.815570   -1.270190   -0.636414
 C      1.963393   -4.172833    0.939354
 C      3.055366   -3.591943   -1.114594
 C      2.764385   -5.299534    1.048998
 H      1.234134   -3.942612    1.701750
 C      3.855445   -4.719054   -1.011436
 H      3.168424   -2.925477   -1.963232
 C      3.711451   -5.575686    0.072276
 H      2.648239   -5.962425    1.901571
 H      4.594810   -4.929216   -1.779238
 H      4.339160   -6.458449    0.155394
 C      0.060085   -2.355796   -1.180908
 C     -0.522819   -1.127849   -1.745563
 H      0.376905   -2.971657   -2.029367
 H     -0.698913   -2.911571   -0.631473
 C     -0.954779   -0.141750   -2.277901
 H     -1.340064    0.708404   -2.782274
 Cl     2.123085    0.677757    2.636102
 Cl     0.378067   -1.544260    3.689514
 O      0.581543    0.409978    0.385302
 O     -0.960893    0.144913    2.097568
 C     -0.597165    2.327031    0.578004
 C     -1.771801    1.475716    0.442250
 C     -2.661055   -0.689781    0.814048
 C      1.729103    2.361219    0.127452
 C      1.772649    3.755114    0.258960
 C     -0.610456    3.695048    0.700918
 C      0.582887    4.391123    0.579995
 C     -2.793408    1.757788   -0.432003
 C     -3.755965    0.793351   -0.678969
 C     -3.697754   -0.464316   -0.099995
 H     -1.546977    4.204875    0.890754
 H      0.562993    5.464283    0.706985
 H     -2.805913    2.709248   -0.948273
 H     -4.545909    1.028967   -1.378288
 C     -4.709245   -1.556330   -0.437405
 C     -2.437957   -1.901455    1.532586
 N      0.576931    1.705589    0.367978
 N     -1.775777    0.294895    1.072899
 C      2.808612    1.520093   -0.293370
 C      3.078556    4.519670    0.072596
 C      3.557662    4.348870   -1.372885
 C      2.896243    6.016598    0.340597
 C      4.112588    3.982793    1.068405
 H      2.828863    4.744852   -2.079211
 H      4.489547    4.890312   -1.524641
 H      3.738879    3.310368   -1.625637
 H      3.850899    6.522951    0.211314
 H      2.193968    6.480370   -0.350277
 H      2.563219    6.217658    1.357541
 H      5.051095    4.523555    0.961729
 H      3.773477    4.111458    2.095134
 H      4.323181    2.930465    0.917763
 C      3.666690    0.781377   -0.685777
 H      4.443928    0.138717   -1.031969
 C     -2.213202   -2.911724    2.136019
 H     -2.011298   -3.809197    2.675307
 C     -3.962998   -2.751457   -1.038710
 C     -5.467654   -1.952690    0.833512
 C     -5.732687   -1.071828   -1.469031
 H     -3.253688   -3.184953   -0.343845
 H     -4.668829   -3.532648   -1.314804
 H     -3.419587   -2.463953   -1.937006
 H     -4.808841   -2.334979    1.604729
 H     -6.012314   -1.105048    1.247626
 H     -6.194583   -2.730837    0.608076
 H     -5.269079   -0.790469   -2.413168
 H     -6.431718   -1.877475   -1.685276
 H     -6.320853   -0.229568   -1.108108
