79

 Si     0.656818   -0.883739    1.878942
 O      0.249894   -2.174408    0.998228
 C      0.613197   -2.701107   -0.224275
 C      1.106779   -4.109692   -0.036060
 H      1.409633   -2.103022   -0.668020
 C      0.787311   -4.803056    1.118201
 C      1.873167   -4.727100   -1.017761
 C      1.233290   -6.103598    1.300639
 H      0.204267   -4.311453    1.882447
 C      2.317619   -6.027826   -0.841823
 H      2.122819   -4.189535   -1.926464
 C      1.998273   -6.719364    0.319775
 H      0.983225   -6.635716    2.213924
 H      2.916596   -6.503456   -1.613396
 H      2.348091   -7.738216    0.460278
 C     -0.593804   -2.663792   -1.140529
 C     -0.816111   -1.347298   -1.759850
 H     -0.477124   -3.382417   -1.958781
 H     -1.468604   -2.958353   -0.561536
 C     -0.956062   -0.303024   -2.336026
 H     -1.089227    0.601090   -2.874081
 Cl     2.519020   -0.260121    2.360202
 Cl     0.283310   -1.762861    3.695878
 O      0.757935   -0.068091    0.269167
 O     -0.634142    0.203975    2.124004
 C      0.209676    2.100819    0.542556
 C     -1.152937    1.599875    0.415914
 C     -2.571273   -0.220091    0.982907
 C      2.401875    1.463549   -0.105419
 C      2.862285    2.780126    0.069507
 C      0.605038    3.395611    0.778338
 C      1.953873    3.694901    0.559842
 C     -2.052593    2.056340   -0.525250
 C     -3.242482    1.344925   -0.662156
 C     -3.530248    0.198115    0.049958
 H      2.274588    4.707197    0.755084
 H     -3.949185    1.696175   -1.398347
 C     -4.818822   -0.588362   -0.172849
 C     -2.669727   -1.377444    1.809990
 N      1.136260    1.172480    0.222291
 N     -1.453988    0.510805    1.137143
 C      3.151700    0.363491   -0.632349
 C      4.311602    3.146692   -0.226288
 C      4.592322    2.913356   -1.714602
 C      4.596116    4.618514    0.086609
 C      5.228314    2.288031    0.651857
 H      3.952324    3.535688   -2.339168
 H      5.624595    3.169145   -1.946111
 H      4.439872    1.879850   -2.004320
 H      5.637988    4.838710   -0.138332
 H      3.990288    5.295479   -0.513707
 H      4.439587    4.856419    1.137428
 H      6.270453    2.541690    0.466535
 H      5.031295    2.457098    1.709329
 H      5.110546    1.228277    0.457969
 C      3.721517   -0.575939   -1.110735
 H      4.246668   -1.400885   -1.535290
 C     -2.731267   -2.352249    2.503532
 H     -2.782808   -3.217950    3.123609
 C     -4.461505   -1.996950   -0.657030
 C     -5.614147   -0.633306    1.136101
 C     -5.700677    0.067127   -1.240103
 H     -3.878185   -2.546294    0.072293
 H     -5.368096   -2.568370   -0.847638
 H     -3.892658   -1.960436   -1.584251
 H     -5.063104   -1.112914    1.936756
 H     -5.883817    0.368744    1.467506
 H     -6.537906   -1.191140    0.993834
 H     -5.213188    0.109305   -2.212652
 H     -6.608439   -0.520311   -1.364075
 H     -6.008888    1.074257   -0.963886
 C     -1.768670    3.233683   -1.414701
 H     -2.099460    4.160362   -0.941367
 H     -0.708687    3.321599   -1.634794
 H     -2.310228    3.127730   -2.353335
 C     -0.343896    4.448495    1.275314
 H      0.035621    4.856155    2.214760
 H     -0.419799    5.271953    0.562449
 H     -1.333893    4.042056    1.456262
