79

 Si     0.535171   -2.156923    0.840385
 O     -1.078517   -2.065143    0.823576
 C     -2.089035   -2.771791    0.186646
 C     -2.468177   -1.970491   -1.027921
 H     -1.697485   -3.736378   -0.143072
 C     -1.462370   -1.711075   -1.949938
 C     -3.733689   -1.461470   -1.256628
 C     -1.708829   -0.942876   -3.070421
 H     -0.482828   -2.126549   -1.785200
 C     -3.989715   -0.682859   -2.378222
 H     -4.539049   -1.678440   -0.569774
 C     -2.977448   -0.416582   -3.285291
 H     -0.911502   -0.761602   -3.784495
 H     -4.989337   -0.290711   -2.543173
 H     -3.178656    0.187175   -4.165834
 C     -3.184548   -3.020098    1.188459
 C     -2.653348   -3.731736    2.359821
 H     -3.989207   -3.615646    0.741349
 H     -3.606580   -2.074591    1.521065
 C     -2.191523   -4.301033    3.310285
 H     -1.799498   -4.821425    4.151674
 Cl     1.748565   -2.474933    2.420188
 Cl     0.731374   -4.009972   -0.023355
 O      1.210516   -1.431647   -0.550058
 O      0.440444   -0.477369    1.455121
 C      1.498292    0.811746   -0.413194
 C      0.046832    0.876439   -0.291804
 C     -1.638518    0.469332    1.326392
 C      3.360402   -0.667468   -0.494489
 C      4.256422    0.410134   -0.434923
 C      2.327619    1.910567   -0.332560
 C      3.702186    1.671607   -0.350441
 C     -0.820245    1.581853   -1.090609
 C     -2.121006    1.747041   -0.610258
 C     -2.543233    1.277345    0.616392
 H      4.354474    2.528984   -0.280547
 H     -2.801386    2.323833   -1.217622
 C     -3.883153    1.691211    1.221864
 C     -1.867658   -0.153015    2.588963
 N      2.040299   -0.415079   -0.464882
 N     -0.414171    0.281532    0.822677
 C      3.716833   -2.046666   -0.593248
 C      5.765522    0.184873   -0.443960
 C      6.160751   -0.505991   -1.753505
 C      6.532554    1.507729   -0.356166
 C      6.147801   -0.666813    0.771525
 H      5.903159    0.107299   -2.616245
 H      7.236005   -0.672720   -1.778982
 H      5.678879   -1.469732   -1.872108
 H      7.601469    1.303279   -0.367319
 H      6.325114    2.165308   -1.198915
 H      6.321650    2.049750    0.564254
 H      7.223351   -0.833167    0.788669
 H      5.876767   -0.169135    1.701668
 H      5.667289   -1.638273    0.761535
 C      3.975868   -3.213583   -0.678349
 H      4.202676   -4.253439   -0.743552
 C     -1.991018   -0.683366    3.655787
 H     -2.124362   -1.151891    4.603954
 C     -4.730765    0.476227    1.594659
 C     -3.578519    2.529906    2.470783
 C     -4.698029    2.548181    0.248711
 H     -4.997053   -0.102573    0.715743
 H     -4.227611   -0.179633    2.293009
 H     -5.656551    0.802366    2.064685
 H     -3.035647    1.960008    3.217932
 H     -2.988194    3.411285    2.223522
 H     -4.504070    2.874992    2.928145
 H     -4.932385    2.014861   -0.670798
 H     -5.643991    2.819452    0.713789
 H     -4.194628    3.477681   -0.011015
 C     -0.401272    2.186555   -2.398942
 H     -0.373432    3.276204   -2.328666
 H      0.576810    1.830799   -2.708055
 H     -1.126040    1.920055   -3.167420
 C      1.806260    3.313183   -0.196710
 H      2.476382    3.894339    0.436040
 H      1.762197    3.799704   -1.173803
 H      0.814342    3.331048    0.243199
