79

 Si     0.270242    2.017980   -1.590137
 O     -0.598158    2.789174   -0.458616
 C     -0.348612    3.039071    0.884331
 C     -0.783927    1.861232    1.703532
 H      0.721109    3.183476    1.032927
 C     -2.083176    1.397281    1.603271
 C      0.114492    1.193887    2.520280
 C     -2.488800    0.288397    2.327088
 H     -2.780086    1.916036    0.960758
 C     -0.277694    0.071705    3.230361
 H      1.133826    1.545646    2.592374
 C     -1.585668   -0.381167    3.139673
 H     -3.515505   -0.051665    2.265050
 H      0.436836   -0.442950    3.866843
 H     -1.904581   -1.248147    3.711077
 C     -1.068737    4.315806    1.252288
 C     -0.511400    5.462656    0.516653
 H     -0.985206    4.507954    2.329235
 H     -2.126516    4.210329    1.007159
 C     -0.033143    6.380806   -0.091394
 H      0.378963    7.206183   -0.621617
 Cl    -0.491930    3.070149   -3.171114
 Cl     2.208544    2.298152   -2.096199
 O      0.762878    1.003307   -0.177875
 O     -0.401966    0.550729   -2.161064
 C      1.053360   -1.127852   -0.773811
 C     -0.399813   -1.171200   -0.675615
 C     -2.429313   -0.151246   -1.371699
 C      2.881972    0.172734   -0.008733
 C      3.782195   -0.852324   -0.347675
 C      1.880861   -2.156598   -1.159084
 C      3.251619   -1.970399   -0.958050
 C     -1.080633   -2.058854    0.129055
 C     -2.472440   -1.993916    0.112804
 C     -3.182298   -1.077634   -0.635561
 H      3.911298   -2.765491   -1.271339
 H     -3.007675   -2.701944    0.726806
 C     -4.709205   -1.083801   -0.686813
 C     -2.975141    0.895473   -2.171425
 N      1.586923    0.019429   -0.316542
 N     -1.086307   -0.240210   -1.358084
 C      3.205176    1.387132    0.677800
 C      5.275758   -0.701670   -0.082851
 C      5.506269   -0.583829    1.427515
 C      6.063646   -1.913027   -0.590325
 C      5.787664    0.539872   -0.821288
 H      5.157137   -1.473455    1.950628
 H      6.568853   -0.476754    1.637571
 H      5.002071    0.275419    1.854883
 H      7.122329   -1.763290   -0.387038
 H      5.771294   -2.836915   -0.093772
 H      5.961924   -2.052633   -1.665257
 H      6.856386    0.661390   -0.654576
 H      5.630117    0.451800   -1.895146
 H      5.300318    1.448842   -0.488516
 C      3.431985    2.390852    1.292023
 H      3.649136    3.281255    1.837010
 C     -3.428437    1.774399   -2.848087
 H     -3.825966    2.561337   -3.448038
 C     -5.265121    0.258560   -0.204136
 C     -5.140257   -1.365796   -2.131322
 C     -5.295441   -2.182018    0.205936
 H     -4.912382    1.091852   -0.798674
 H     -6.351763    0.251453   -0.264359
 H     -4.996125    0.449649    0.831493
 H     -4.786981   -0.606532   -2.820085
 H     -4.767534   -2.330233   -2.474048
 H     -6.226143   -1.391585   -2.201117
 H     -5.038036   -2.046027    1.254997
 H     -6.381384   -2.156691    0.138570
 H     -4.981560   -3.178860   -0.098963
 C     -0.383016   -3.063091    1.000976
 H     -0.376713   -4.045876    0.524195
 H      0.641260   -2.772849    1.208287
 H     -0.913469   -3.153062    1.947576
 C      1.361805   -3.419730   -1.783946
 H      1.898410   -3.608156   -2.715592
 H      1.529654   -4.273712   -1.124204
 H      0.301948   -3.350212   -2.007239
