79

 Si     0.222442   -1.670926    1.973474
 O     -1.071251   -2.302203    1.234064
 C     -1.386500   -2.948666    0.044170
 C     -1.643829   -1.932339   -1.034894
 H     -2.326637   -3.476888    0.246006
 C     -0.701263   -1.580696   -1.987077
 C     -2.878637   -1.302697   -1.050055
 C     -0.981280   -0.611081   -2.934011
 H      0.262100   -2.061684   -1.995416
 C     -3.173329   -0.339710   -2.002000
 H     -3.621998   -1.582833   -0.315268
 C     -2.221841    0.010611   -2.947430
 H     -0.232596   -0.352081   -3.677120
 H     -4.151159    0.129830   -2.012194
 H     -2.450653    0.758011   -3.701733
 C     -0.324661   -3.961351   -0.292697
 C     -0.138504   -4.924513    0.800999
 H     -0.590542   -4.500967   -1.208270
 H      0.614387   -3.445556   -0.455994
 C      0.014261   -5.693365    1.709644
 H      0.159850   -6.377658    2.511444
 Cl    -0.323363   -2.232434    3.862696
 Cl     2.147967   -2.257837    2.182258
 O      0.611716   -1.126270    0.282633
 O     -0.069906   -0.015877    2.265618
 C      1.236541    1.017370    0.290511
 C     -0.196630    1.250718    0.395571
 C     -2.146368    0.755205    1.655815
 C      2.762258   -0.668320   -0.370364
 C      3.812032    0.267814   -0.407611
 C      2.219638    1.977948    0.301734
 C      3.512012    1.558199   -0.023771
 C     -0.916784    2.005528   -0.502567
 C     -2.279531    2.152067   -0.253620
 C     -2.923988    1.570077    0.818852
 H      4.295556    2.300329   -0.001002
 H     -2.846473    2.758899   -0.942313
 C     -4.401204    1.831892    1.109322
 C     -2.634649    0.052517    2.794893
 N      1.557252   -0.270264    0.062490
 N     -0.830518    0.635992    1.404957
 C      2.852278   -2.029708   -0.805538
 C      5.221563   -0.145337   -0.818765
 C      5.203347   -0.606225   -2.280002
 C      6.207165    1.021870   -0.704494
 C      5.705560   -1.261443    0.113439
 H      4.880034    0.196414   -2.941982
 H      6.202719   -0.904501   -2.591327
 H      4.546781   -1.454046   -2.436916
 H      7.199299    0.682894   -0.996518
 H      5.948338    1.851172   -1.360807
 H      6.286023    1.399814    0.313438
 H      6.715691   -1.563625   -0.156651
 H      5.728228   -0.925534    1.148982
 H      5.077615   -2.143050    0.065108
 C      2.917410   -3.150488   -1.224966
 H      2.981132   -4.148752   -1.594285
 C     -3.045710   -0.530312    3.757544
 H     -3.406322   -1.054072    4.613386
 C     -5.187133    0.518726    1.102962
 C     -4.507708    2.527960    2.471860
 C     -5.025012    2.755702    0.058449
 H     -4.804319   -0.197498    1.819498
 H     -6.228641    0.709317    1.355092
 H     -5.167380    0.053712    0.120870
 H     -4.120559    1.914554    3.277387
 H     -3.964054    3.471825    2.476562
 H     -5.548757    2.749426    2.699447
 H     -4.991433    2.328919   -0.942260
 H     -6.073615    2.916872    0.301193
 H     -4.551282    3.735479    0.030765
 C     -0.279600    2.659073   -1.694590
 H      0.065229    3.664060   -1.441967
 H      0.568337    2.085364   -2.055703
 H     -1.006118    2.746365   -2.499313
 C      1.949128    3.407790    0.672405
 H      2.602626    3.693916    1.499068
 H      2.164734    4.071677   -0.167376
 H      0.920488    3.554900    0.984260
