79

 Si     0.181011    1.152029    2.305091
 O      0.557611    2.459386    1.422977
 C     -0.145995    3.152170    0.446684
 C      0.051138    2.488243   -0.882951
 H     -1.208919    3.132194    0.685602
 C      1.331353    2.277685   -1.362571
 C     -1.032549    2.032558   -1.616157
 C      1.528629    1.631918   -2.571678
 H      2.174559    2.632571   -0.787496
 C     -0.842328    1.366390   -2.814987
 H     -2.034009    2.187745   -1.240823
 C      0.442313    1.168691   -3.299374
 H      2.532948    1.495552   -2.954084
 H     -1.700500    1.012413   -3.379596
 H      0.596634    0.664733   -4.249121
 C      0.332357    4.585533    0.470616
 C     -0.007248    5.230079    1.749795
 H     -0.122712    5.156726   -0.348179
 H      1.414756    4.601455    0.335337
 C     -0.302225    5.733027    2.799307
 H     -0.556591    6.194907    3.723503
 Cl    -1.478849    0.820325    3.413274
 Cl     1.376205    1.641546    3.892151
 O     -0.702102    0.687358    0.799064
 O      1.089659   -0.261905    1.976575
 C     -0.659126   -1.521559    0.484167
 C      0.675380   -1.244724   -0.031078
 C      2.763294   -0.207004    0.419628
 C     -2.706440   -0.399596    0.898430
 C     -3.383613   -1.627144    1.004717
 C     -1.250821   -2.756089    0.613851
 C     -2.618172   -2.770778    0.904864
 C      1.084130   -1.597767   -1.300103
 C      2.390880   -1.278690   -1.658191
 C      3.266262   -0.611065   -0.824361
 H     -3.089700   -3.734796    1.022491
 H      2.720988   -1.569926   -2.643367
 C      4.717089   -0.344446   -1.221931
 C      3.492616    0.529718    1.398860
 N     -1.377418   -0.410881    0.730681
 N      1.501582   -0.538574    0.755407
 C     -3.306463    0.900337    0.921816
 C     -4.885697   -1.673282    1.260469
 C     -5.614332   -1.022889    0.079578
 C     -5.391614   -3.112559    1.395266
 C     -5.187585   -0.939945    2.571992
 H     -5.412209   -1.554576   -0.849620
 H     -6.690014   -1.047201    0.243613
 H     -5.329478    0.013775   -0.058974
 H     -6.464134   -3.100162    1.579983
 H     -5.230690   -3.696101    0.490177
 H     -4.930386   -3.637464    2.230148
 H     -6.255409   -0.968777    2.780806
 H     -4.675234   -1.408144    3.411068
 H     -4.888813    0.101335    2.540844
 C     -3.779612    2.000967    0.892165
 H     -4.214233    2.974405    0.869849
 C      4.100514    1.146458    2.227097
 H      4.634910    1.699550    2.965829
 C      5.003810    1.159449   -1.217589
 C      5.629118   -1.076907   -0.229928
 C      5.020550   -0.875914   -2.626266
 H      4.828924    1.612457   -0.249833
 H      6.045332    1.337808   -1.478131
 H      4.390119    1.682297   -1.946633
 H      5.492918   -0.726655    0.787127
 H      5.446230   -2.150620   -0.243572
 H      6.673384   -0.919854   -0.493559
 H      4.416543   -0.393010   -3.392603
 H      6.062465   -0.674646   -2.867787
 H      4.878671   -1.952495   -2.703901
 C     -0.481645   -4.039603    0.486153
 H     -0.856583   -4.634361   -0.349283
 H      0.579289   -3.860249    0.345435
 H     -0.611887   -4.627145    1.397355
 C      0.170334   -2.290481   -2.270187
 H      0.494727   -2.089576   -3.288897
 H      0.190003   -3.370894   -2.116692
 H     -0.853903   -1.945334   -2.160333
