79

 Si    -0.333107   -2.245356   -0.600300
 O      1.254475   -2.080565   -0.382517
 C      2.354009   -2.238451    0.435738
 C      2.184928   -1.415859    1.683460
 H      3.197445   -1.834250   -0.131349
 C      0.994144   -1.455629    2.387123
 C      3.208114   -0.597799    2.139822
 C      0.807943   -0.670672    3.510014
 H      0.208394   -2.107091    2.051619
 C      3.035620    0.185500    3.271295
 H      4.153241   -0.572184    1.613764
 C      1.830458    0.155454    3.957278
 H     -0.136498   -0.714502    4.043991
 H      3.847198    0.819324    3.617784
 H      1.691539    0.767251    4.844353
 C      2.653073   -3.690911    0.718524
 C      2.822505   -4.431076   -0.541770
 H      3.575938   -3.766001    1.306805
 H      1.843193   -4.137891    1.291843
 C      2.951857   -5.006080   -1.587684
 H      3.073617   -5.543915   -2.497421
 Cl    -1.280807   -2.926110   -2.246659
 Cl    -0.618770   -3.917699    0.556789
 O     -1.197858   -1.307901    0.531968
 O     -0.209170   -0.706590   -1.508796
 C     -1.454044    0.876771   -0.015392
 C      0.002665    0.942854    0.001891
 C      1.840924    0.284442   -1.344831
 C     -3.318195   -0.598283    0.090776
 C     -4.198386    0.441287   -0.241085
 C     -2.266470    1.935713   -0.365596
 C     -3.634600    1.682526   -0.461957
 C      0.788695    1.788372    0.746814
 C      2.132735    1.882651    0.378785
 C      2.678528    1.201905   -0.690393
 H     -4.272881    2.507089   -0.741274
 H      2.753362    2.559706    0.945593
 C      4.102399    1.456159   -1.179163
 C      2.198576   -0.561304   -2.436598
 N     -2.002633   -0.332841    0.175849
 N      0.570538    0.174964   -0.944399
 C     -3.683435   -1.952426    0.360138
 C     -5.699036    0.196179   -0.367205
 C     -6.241532   -0.290776    0.980715
 C     -6.448928    1.477106   -0.745065
 C     -5.941841   -0.839633   -1.470516
 H     -6.082474    0.451851    1.761749
 H     -7.313172   -0.468012    0.910931
 H     -5.778745   -1.217483    1.300388
 H     -7.512741    1.260058   -0.820669
 H     -6.335828    2.260872    0.002313
 H     -6.135428    1.872476   -1.709865
 H     -7.008697   -1.023975   -1.582643
 H     -5.565613   -0.487844   -2.430210
 H     -5.467039   -1.789802   -1.254635
 C     -3.943462   -3.099480    0.589929
 H     -4.169862   -4.123181    0.784576
 C      2.438810   -1.292083   -3.354659
 H      2.673086   -1.932230   -4.174520
 C      4.924196    0.165336   -1.171833
 C      4.012026    2.022969   -2.602206
 C      4.824893    2.478919   -0.297507
 H      4.474253   -0.617327   -1.769559
 H      5.915539    0.357195   -1.577788
 H      5.056333   -0.216414   -0.163251
 H      3.544638    1.324397   -3.288260
 H      3.441108    2.950418   -2.624171
 H      5.007116    2.243403   -2.984381
 H      4.918273    2.142028    0.733478
 H      5.833222    2.632874   -0.677447
 H      4.332667    3.449895   -0.298452
 C      0.247292    2.592872    1.891895
 H      0.293664    3.661275    1.670663
 H     -0.779501    2.324152    2.118455
 H      0.854888    2.406297    2.776687
 C     -1.725543    3.304448   -0.668722
 H     -2.357000    3.794525   -1.408615
 H     -1.722281    3.921982    0.232117
 H     -0.712538    3.256131   -1.056555
