79

 Si     0.148524   -2.020479    0.093930
 O      1.574987   -1.357790    0.458668
 C      2.570997   -1.609066    1.390144
 C      3.810433   -1.952606    0.619804
 H      2.281769   -2.469992    1.997293
 C      3.682007   -2.936483   -0.353760
 C      5.035969   -1.335312    0.799336
 C      4.756664   -3.290358   -1.146997
 H      2.726777   -3.423433   -0.485151
 C      6.122040   -1.688602    0.007703
 H      5.164073   -0.579210    1.562374
 C      5.984560   -2.661129   -0.969169
 H      4.640084   -4.061602   -1.902943
 H      7.079441   -1.198065    0.159456
 H      6.833565   -2.936265   -1.588705
 C      2.662234   -0.406408    2.293719
 C      1.349357   -0.104091    2.881653
 H      3.379145   -0.582535    3.103569
 H      3.001738    0.458634    1.731192
 C      0.268569    0.121766    3.351290
 H     -0.680386    0.312081    3.787816
 Cl    -0.320053   -3.077270   -1.562418
 Cl     0.223632   -3.606090    1.396080
 O     -1.137221   -1.324540    0.970727
 O     -0.025296   -0.591055   -0.973676
 C     -2.022561    0.531784    0.016872
 C     -0.722376    1.141396    0.266788
 C      1.487066    1.087251   -0.593282
 C     -3.251437   -1.501402    0.119646
 C     -4.340014   -0.909594   -0.536868
 C     -3.051484    1.165153   -0.648400
 C     -4.196740    0.413232   -0.907403
 C     -0.468851    2.281132    0.989752
 C      0.807310    2.834883    0.859252
 C      1.780843    2.311670    0.034237
 H     -5.001613    0.900480   -1.436479
 H      1.009849    3.743805    1.405918
 C      3.093777    3.044457   -0.234970
 C      2.355275    0.357905   -1.457678
 N     -2.149319   -0.763164    0.343277
 N      0.275143    0.551068   -0.416595
 C     -3.196247   -2.845148    0.599084
 C     -5.607595   -1.703553   -0.839102
 C     -6.232076   -2.171198    0.479826
 C     -6.643800   -0.850642   -1.577225
 C     -5.246802   -2.892563   -1.736324
 H     -6.504631   -1.324812    1.109258
 H     -7.139565   -2.739168    0.283548
 H     -5.565119   -2.809600    1.047806
 H     -7.529914   -1.452081   -1.771089
 H     -6.965143    0.010867   -0.993935
 H     -6.280977   -0.498302   -2.541415
 H     -6.139920   -3.468386   -1.972033
 H     -4.813066   -2.557748   -2.677627
 H     -4.539631   -3.565096   -1.264925
 C     -3.116528   -3.964542    1.019252
 H     -3.038135   -4.963058    1.384762
 C      3.044556   -0.271179   -2.207969
 H      3.675359   -0.818266   -2.869566
 C      4.289326    2.181271    0.169975
 C      3.149361    3.377283   -1.731326
 C      3.176546    4.358156    0.548762
 H      4.286727    1.213732   -0.315520
 H      5.216604    2.681468   -0.102943
 H      4.313874    2.022167    1.245566
 H      3.142639    2.485552   -2.348186
 H      2.307223    4.000309   -2.029792
 H      4.059705    3.928257   -1.960423
 H      3.143304    4.201332    1.625727
 H      4.122132    4.849301    0.326486
 H      2.384766    5.054659    0.278239
 C     -2.950319    2.590753   -1.112350
 H     -3.269518    3.274752   -0.323352
 H     -1.932174    2.843631   -1.395591
 H     -3.598271    2.746195   -1.973468
 C     -1.497398    2.923676    1.874867
 H     -1.081398    3.048434    2.875991
 H     -1.766049    3.913800    1.500351
 H     -2.396322    2.319587    1.948664
