79

 Si     0.358676   -1.553662    2.032555
 O     -0.730220   -2.496295    1.287878
 C     -0.728404   -3.109537    0.042215
 C     -1.194655   -2.136557   -0.998944
 H      0.286409   -3.418131   -0.207434
 C     -2.412247   -1.498299   -0.846393
 C     -0.395894   -1.824806   -2.087207
 C     -2.837032   -0.568178   -1.780373
 H     -3.032148   -1.741511    0.004605
 C     -0.804175   -0.880313   -3.013736
 H      0.560368   -2.314275   -2.205483
 C     -2.031712   -0.251900   -2.864610
 H     -3.804047   -0.093025   -1.668695
 H     -0.167643   -0.644026   -3.861975
 H     -2.366651    0.474435   -3.599499
 C     -1.602939   -4.338322    0.137997
 C     -1.031525   -5.317110    1.077324
 H     -1.712365   -4.810306   -0.846421
 H     -2.594296   -4.042750    0.484439
 C     -0.539900   -6.099493    1.843906
 H     -0.117994   -6.805098    2.519429
 Cl    -0.218898   -2.056555    3.930177
 Cl     2.326629   -1.913743    2.333499
 O      0.690435   -1.009093    0.342542
 O     -0.093682    0.081579    2.261970
 C      1.251965    1.150596    0.282290
 C     -0.188437    1.349603    0.376304
 C     -2.154942    0.807829    1.593767
 C      2.812733   -0.522383   -0.339510
 C      3.839045    0.434449   -0.424834
 C      2.215405    2.131669    0.251968
 C      3.512882    1.729583   -0.078133
 C     -0.914837    2.078975   -0.540536
 C     -2.284654    2.197771   -0.317310
 C     -2.936729    1.602427    0.743331
 H      4.279653    2.489474   -0.089315
 H     -2.852125    2.784663   -1.023182
 C     -4.427876    1.814874    0.998989
 C     -2.648462    0.075868    2.713618
 N      1.604428   -0.133392    0.089304
 N     -0.829548    0.719745    1.373807
 C      2.915659   -1.904641   -0.698974
 C      5.249661    0.034563   -0.841798
 C      5.213707   -0.502823   -2.276477
 C      6.208426    1.228355   -0.806217
 C      5.773817   -1.023797    0.134976
 H      4.856298    0.255111   -2.972724
 H      6.213738   -0.792906   -2.593356
 H      4.576057   -1.374067   -2.373517
 H      7.201493    0.900218   -1.107400
 H      5.912465    2.019880   -1.492881
 H      6.302251    1.654848    0.191083
 H      6.785448   -1.318101   -0.138302
 H      5.806722   -0.637646    1.152590
 H      5.163426   -1.919265    0.140104
 C      2.954091   -3.054904   -1.032949
 H      3.003724   -4.077320   -1.331603
 C     -3.055262   -0.540381    3.657350
 H     -3.412335   -1.094752    4.495452
 C     -5.168928    0.475318    0.978326
 C     -4.588462    2.506782    2.358224
 C     -5.056806    2.715277   -0.068946
 H     -4.793840   -0.217976    1.720630
 H     -6.225625    0.634228    1.184670
 H     -5.094014   -0.004651    0.005940
 H     -4.192953    1.908753    3.171622
 H     -4.082350    3.471238    2.372965
 H     -5.641562    2.687124    2.565817
 H     -4.991833    2.284080   -1.066514
 H     -6.113999    2.848670    0.152430
 H     -4.609892    3.707693   -0.093147
 C     -0.284296    2.725808   -1.740385
 H     -0.049323    3.772269   -1.533979
 H      0.628584    2.218416   -2.034666
 H     -0.979371    2.697454   -2.577625
 C      1.918020    3.567257    0.577529
 H      2.599982    3.907324    1.359263
 H      2.072259    4.201745   -0.297778
 H      0.900430    3.696036    0.931944
