79

 Si     0.260284   -1.412085    1.634697
 O      1.677518   -2.244928    1.560629
 C      2.171546   -3.111143    0.597565
 C      2.187546   -2.362775   -0.706044
 H      1.497357   -3.966334    0.501931
 C      3.145694   -1.399841   -0.963651
 C      1.115007   -2.492052   -1.572510
 C      3.011843   -0.538798   -2.036371
 H      3.997211   -1.301986   -0.310051
 C      0.977218   -1.642342   -2.654844
 H      0.369388   -3.254120   -1.388295
 C      1.917351   -0.649878   -2.880732
 H      3.770845    0.215439   -2.221194
 H      0.134925   -1.762784   -3.328264
 H      1.816932    0.017874   -3.731500
 C      3.516563   -3.613081    1.055828
 C      3.406618   -4.321624    2.340873
 H      3.947672   -4.291003    0.308539
 H      4.199762   -2.773514    1.177981
 C      3.301513   -4.897329    3.389129
 H      3.227152   -5.418426    4.313720
 Cl     0.445426   -0.888653    3.567721
 Cl    -0.968200   -2.932831    1.132729
 O      0.876661   -0.487324    0.336771
 O     -1.044312   -0.179674    1.558716
 C     -0.192796    1.382075   -0.300198
 C     -1.302398    0.487756   -0.602359
 C     -2.979521   -0.777648    0.502306
 C      1.929632    1.470310    0.767484
 C      1.984021    2.862343    0.611937
 C     -0.223924    2.755615   -0.436315
 C      0.893985    3.460460    0.008273
 C     -1.938733    0.356377   -1.813605
 C     -3.115456   -0.397594   -1.832813
 C     -3.688225   -0.935920   -0.699668
 H      0.879237    4.534263   -0.102726
 H     -3.607915   -0.523523   -2.785325
 C     -5.006972   -1.699760   -0.735871
 C     -3.422942   -1.178200    1.801935
 N      0.867187    0.807203    0.282575
 N     -1.786701   -0.162633    0.476577
 C      2.883250    0.661568    1.454524
 C      3.178053    3.666946    1.114671
 C      4.452694    3.141521    0.445666
 C      3.041691    5.153039    0.769427
 C      3.257406    3.535139    2.639513
 H      4.401845    3.246445   -0.637426
 H      5.316468    3.707750    0.788985
 H      4.636935    2.097850    0.672992
 H      3.922258    5.685529    1.123802
 H      2.974201    5.324948   -0.303793
 H      2.178594    5.613572    1.247144
 H      4.103053    4.104393    3.021229
 H      2.357900    3.923250    3.115658
 H      3.384834    2.506288    2.956342
 C      3.626866   -0.036269    2.082644
 H      4.277859   -0.658584    2.651788
 C     -3.765861   -1.440990    2.919729
 H     -4.082169   -1.682934    3.908711
 C     -4.771755   -3.119278   -0.208503
 C     -6.039489   -0.955444    0.117234
 C     -5.556136   -1.808606   -2.161259
 H     -4.411596   -3.124951    0.813498
 H     -5.700092   -3.687002   -0.232836
 H     -4.044717   -3.650623   -0.820667
 H     -5.729434   -0.866730    1.152197
 H     -6.219459    0.047860   -0.267390
 H     -6.989420   -1.486648    0.104276
 H     -4.878359   -2.340464   -2.827030
 H     -6.490292   -2.366856   -2.144616
 H     -5.774505   -0.835450   -2.598177
 C     -1.412154    0.976274   -3.075752
 H     -2.055193    1.798867   -3.396560
 H     -0.401139    1.347138   -2.947998
 H     -1.407819    0.231354   -3.871741
 C     -1.406714    3.491419   -0.999919
 H     -1.530543    4.440211   -0.478474
 H     -1.252642    3.709519   -2.058968
 H     -2.322420    2.918033   -0.894503
