71

 Si     0.081376   -1.577661    0.818373
 O      1.616478   -2.744401    0.465947
 C      2.124380   -3.433315   -0.406555
 C      3.432571   -4.056438   -0.290964
 H      1.586978   -3.605563   -1.347644
 C      4.173476   -3.902584    0.883127
 C      3.940567   -4.807252   -1.351395
 C      5.413220   -4.493728    0.994847
 H      3.755399   -3.320102    1.694967
 C      5.186929   -5.399715   -1.238219
 H      3.358971   -4.924844   -2.260706
 C      5.918225   -5.241736   -0.068485
 H      5.993697   -4.379563    1.905305
 H      5.589176   -5.984995   -2.059680
 H      6.896874   -5.707773    0.020338
 C      2.190225    0.059288   -2.055102
 C      1.725099   -0.078932   -0.846672
 H      1.629094    0.629652   -2.788752
 H      3.149992   -0.371734   -2.330940
 C      1.223471   -0.210164    0.357076
 H      1.482966    0.523008    1.110522
 Cl    -0.947554   -2.511779   -0.678715
 Cl     0.118633   -2.360036    2.688990
 O     -1.278458   -0.524126    1.336145
 O     -0.410546    1.994992   -1.930176
 C     -2.059538    1.084543   -0.100830
 C     -0.906484    1.890381    0.267645
 C      0.980313    3.085004   -0.486125
 C     -3.347108   -0.836890    0.398795
 C     -4.332713   -0.494521   -0.515438
 C     -3.008976    1.469057   -1.028803
 C     -4.112293    0.674789   -1.245804
 C     -0.597816    2.219849    1.568738
 C      0.508941    2.993026    1.845647
 C      1.330322    3.440243    0.816994
 H     -2.859131    2.392469   -1.568774
 H     -4.834350    0.992137   -1.984719
 H     -1.238387    1.852685    2.359151
 H      0.727481    3.242679    2.872243
 C      2.577898    4.274278    1.091485
 C      1.731650    3.433409   -1.660910
 N     -2.226121   -0.083507    0.529276
 N     -0.125924    2.320955   -0.763545
 C     -3.421187   -1.958971    1.295912
 C     -5.578122   -1.355176   -0.710419
 C     -5.149693   -2.767456   -1.124996
 C     -6.383290   -1.379754    0.593939
 C     -6.476527   -0.789508   -1.814174
 H     -4.558325   -3.264062   -0.364307
 H     -6.027651   -3.384828   -1.304388
 H     -4.566671   -2.747730   -2.044683
 H     -7.288617   -1.968602    0.460523
 H     -5.831236   -1.821660    1.416002
 H     -6.684452   -0.375724    0.890456
 H     -5.973222   -0.750672   -2.778938
 H     -7.346271   -1.432800   -1.933155
 H     -6.847204    0.206618   -1.578234
 N     -3.509707   -2.838813    2.030298
 N      2.331537    3.682744   -2.610261
 C      3.810403    3.496718    0.614369
 C      2.459035    5.620914    0.368293
 C      2.747175    4.557181    2.587554
 H      3.797884    3.311565   -0.453641
 H      4.714915    4.060825    0.833696
 H      3.890918    2.536492    1.122575
 H      2.402291    5.512837   -0.708816
 H      1.577264    6.168094    0.699146
 H      3.329117    6.237671    0.585219
 H      2.868536    3.646519    3.171596
 H      3.642845    5.156484    2.740731
 H      1.911253    5.120008    2.999044
