71

 Si     0.006824   -1.705269   -0.077130
 O      1.443003   -1.115389    0.372372
 C      2.441031   -1.641947    1.181259
 C      3.304994   -2.596890    0.411215
 H      1.983033   -2.172008    2.019958
 C      3.176612   -2.703353   -0.961462
 C      4.232488   -3.391595    1.073623
 C      3.966188   -3.589971   -1.675707
 H      2.457126   -2.094732   -1.480745
 C      5.025101   -4.279250    0.365145
 H      4.330607   -3.324026    2.151466
 C      4.894485   -4.379937   -1.014046
 H      3.852713   -3.660760   -2.753264
 H      5.745995   -4.897487    0.892623
 H      5.515386   -5.075774   -1.570968
 C      3.227619   -0.476039    1.726351
 C      2.368736    0.422326    2.515432
 H      4.038913   -0.832909    2.369928
 H      3.675974    0.073859    0.903542
 C      1.650073    1.126031    3.171906
 H      1.044573    1.747082    3.785919
 Cl    -0.551550   -2.451838   -1.863778
 Cl    -0.001788   -3.433027    0.994554
 O     -1.269634   -1.058097    0.873305
 O     -0.121703   -0.102889   -0.933773
 C     -2.178054    0.905467    0.174994
 C     -0.880949    1.532008    0.400982
 C      1.339708    1.575216   -0.386797
 C     -3.409236   -1.107944    0.064550
 C     -4.532553   -0.462177   -0.450340
 C     -3.271309    1.601085   -0.298064
 C     -4.427726    0.915810   -0.614341
 C     -0.673071    2.708340    1.087518
 C      0.562424    3.319963    1.011076
 C      1.593583    2.798793    0.235359
 H     -3.193559    2.670998   -0.446049
 H     -5.264569    1.476883   -1.006194
 H     -1.487187    3.146802    1.652519
 H      0.707309    4.248554    1.544376
 C      2.899470    3.561589    0.016955
 C      2.256683    0.886832   -1.245961
 N     -2.281308   -0.417152    0.337642
 N      0.137555    0.980799   -0.270588
 C     -3.362168   -2.508171    0.381916
 C     -5.803526   -1.228751   -0.810676
 C     -5.463081   -2.295832   -1.858128
 C     -6.389038   -1.857481    0.459410
 C     -6.859896   -0.296226   -1.411052
 H     -4.762126   -3.036111   -1.490240
 H     -6.366664   -2.826757   -2.150540
 H     -5.039359   -1.846992   -2.755556
 H     -7.310661   -2.383461    0.219134
 H     -5.719063   -2.576765    0.916566
 H     -6.627475   -1.097432    1.202634
 H     -6.517477    0.185584   -2.325605
 H     -7.742903   -0.877417   -1.668950
 H     -7.181051    0.474795   -0.712404
 N     -3.384558   -3.626284    0.647009
 N      2.991552    0.356968   -1.951569
 C      4.101155    2.713597    0.436428
 C      2.987821    3.931753   -1.470154
 C      2.929240    4.853600    0.839328
 H      4.213032    1.823771   -0.170386
 H      5.014608    3.293377    0.321652
 H      4.028074    2.412619    1.478432
 H      3.023734    3.057174   -2.111325
 H      2.141221    4.544015   -1.778551
 H      3.892792    4.506896   -1.655625
 H      2.867405    4.662465    1.909493
 H      3.870535    5.369215    0.660062
 H      2.133868    5.543873    0.563337
