71

 Si    -0.161233   -1.699526   -0.012991
 O      1.353826   -1.238933    0.311308
 C      2.354394   -1.835155    1.066865
 C      3.064980   -2.892421    0.274049
 H      1.911632   -2.292523    1.955079
 C      2.825676   -3.028078   -1.081084
 C      3.959800   -3.752615    0.898522
 C      3.472815   -4.008601   -1.815564
 H      2.130326   -2.368873   -1.570662
 C      4.610283   -4.734288    0.169620
 H      4.143531   -3.661886    1.963389
 C      4.368839   -4.864155   -1.192071
 H      3.273537   -4.101165   -2.878926
 H      5.306630   -5.403008    0.667668
 H      4.878160   -5.633697   -1.765015
 C      3.285857   -0.735131    1.511264
 C      2.576570    0.265952    2.324991
 H      4.105085   -1.149207    2.108891
 H      3.722407   -0.256487    0.639050
 C      1.978252    1.055726    3.003896
 H      1.481430    1.751071    3.635568
 Cl    -0.918184   -2.443175   -1.726196
 Cl    -0.254816   -3.384196    1.121493
 O     -1.296567   -0.902049    1.000113
 O     -0.199930   -0.119386   -0.918328
 C     -2.063303    1.118481    0.294459
 C     -0.699287    1.621930    0.404440
 C      1.450859    1.424040   -0.539741
 C     -3.485127   -0.767680    0.346905
 C     -4.576960   -0.031386   -0.111008
 C     -3.117463    1.902715   -0.125775
 C     -4.354028    1.324183   -0.333469
 C     -0.330036    2.792640    1.029949
 C      0.949002    3.278146    0.843254
 C      1.865466    2.635436    0.016495
 H     -2.949575    2.954931   -0.318942
 H     -5.160471    1.951969   -0.685885
 H     -1.054472    3.325493    1.634538
 H      1.220753    4.203884    1.329913
 C      3.218167    3.260078   -0.322527
 C      2.231839    0.623702   -1.435520
 N     -2.279509   -0.182198    0.513348
 N      0.209577    0.953656   -0.316449
 C     -3.548067   -2.155450    0.712545
 C     -5.938228   -0.680949   -0.351542
 C     -5.779194   -1.807472   -1.379795
 C     -6.485110   -1.210793    0.979379
 C     -6.942734    0.331427   -0.910020
 H     -5.126331   -2.600996   -1.035124
 H     -6.748217   -2.256525   -1.587622
 H     -5.382318   -1.429635   -2.321142
 H     -7.467842   -1.651428    0.824845
 H     -5.854699   -1.977932    1.414480
 H     -6.594569   -0.409061    1.708871
 H     -6.624950    0.749584   -1.863944
 H     -7.893703   -0.168383   -1.082827
 H     -7.136582    1.151016   -0.219777
 N     -3.656954   -3.257513    1.020030
 N      2.858758    0.003431   -2.170982
 C      4.361622    2.312125    0.041989
 C      3.230459    3.574325   -1.824964
 C      3.431789    4.567471    0.446564
 H      4.343236    1.397577   -0.537511
 H      5.315003    2.796308   -0.158929
 H      4.338050    2.051523    1.097092
 H      3.135850    2.681292   -2.433932
 H      2.425209    4.256320   -2.095446
 H      4.169521    4.052875   -2.095793
 H      3.431991    4.416106    1.524856
 H      4.401873    4.983131    0.181585
 H      2.687407    5.323412    0.202200
