71

 Si     0.516644   -1.403526    1.579481
 O     -0.442946   -2.095009    0.503439
 C     -1.485627   -3.009213    0.450115
 C     -2.533817   -2.452586   -0.468334
 H     -1.898893   -3.158048    1.451025
 C     -2.133907   -1.657244   -1.531153
 C     -3.877756   -2.751450   -0.301933
 C     -3.066105   -1.169133   -2.431479
 H     -1.083735   -1.434028   -1.648331
 C     -4.815160   -2.269569   -1.204882
 H     -4.195627   -3.363604    0.535357
 C     -4.410990   -1.483013   -2.273765
 H     -2.742653   -0.553606   -3.266196
 H     -5.865688   -2.512423   -1.071438
 H     -5.144735   -1.111278   -2.983597
 C     -0.942217   -4.319789   -0.076646
 C      0.115331   -4.861294    0.791233
 H     -1.748763   -5.057847   -0.159950
 H     -0.529893   -4.153594   -1.073849
 C      0.979398   -5.285248    1.508610
 H      1.740459   -5.669083    2.144661
 Cl    -0.229300   -2.114481    3.337567
 Cl     2.455742   -1.816430    1.970597
 O      1.036025   -0.524581    0.014634
 O      0.032766    0.192761    1.993727
 C      1.722512    1.583646    0.435493
 C      0.301001    1.897917    0.509038
 C     -1.851321    1.153691    1.136041
 C      3.231925   -0.042820   -0.363720
 C      4.320299    0.818093   -0.228355
 C      2.756098    2.485813    0.573657
 C      4.046173    2.084439    0.279960
 C     -0.265512    2.953911   -0.176235
 C     -1.636458    3.111296   -0.172493
 C     -2.476178    2.212634    0.480504
 H      2.541773    3.490677    0.917739
 H      4.849702    2.793316    0.421974
 H      0.376417    3.635015   -0.721274
 H     -2.058126    3.949041   -0.710247
 C     -3.992722    2.392942    0.509695
 C     -2.548670    0.105314    1.823396
 N      2.000587    0.333417    0.036343
 N     -0.503949    1.053612    1.161820
 C      3.269551   -1.343759   -0.975251
 C      5.727993    0.374919   -0.611075
 C      5.773589    0.099406   -2.118796
 C      6.759135    1.460027   -0.288821
 C      6.087579   -0.880305    0.193114
 H      5.513899    0.989012   -2.691625
 H      6.779201   -0.196896   -2.410238
 H      5.104009   -0.700275   -2.415758
 H      7.751052    1.102273   -0.557696
 H      6.588381    2.376430   -0.851620
 H      6.784558    1.705097    0.771866
 H      5.435947   -1.718133   -0.027559
 H      7.103498   -1.191709   -0.041049
 H      6.039455   -0.690513    1.264359
 N      3.276485   -2.355795   -1.520100
 N     -3.137694   -0.741952    2.327675
 C     -4.659443    1.190891   -0.163033
 C     -4.444710    2.536851    1.968303
 C     -4.414319    3.656799   -0.245622
 H     -4.434785    0.255926    0.332627
 H     -5.740200    1.312549   -0.149069
 H     -4.350295    1.100821   -1.200585
 H     -4.240829    1.650330    2.558233
 H     -3.960527    3.384182    2.452287
 H     -5.518618    2.707431    2.006165
 H     -4.144665    3.620438   -1.299916
 H     -5.496966    3.755073   -0.198043
 H     -3.993387    4.562247    0.189000
