71

 Si     0.087066   -1.229114    1.284743
 O      1.626994   -2.043084    0.738823
 C      2.023270   -2.701692   -0.212557
 C      3.369290   -3.222198   -0.307334
 H      1.345557   -2.912241   -1.046640
 C      4.263349   -2.994275    0.740831
 C      3.770648   -3.928752   -1.440745
 C      5.552893   -3.469410    0.655000
 H      3.920546   -2.445302    1.608834
 C      5.067382   -4.404420   -1.525869
 H      3.067436   -4.103613   -2.249071
 C      5.952274   -4.173417   -0.480697
 H      6.253775   -3.300444    1.466621
 H      5.390132   -4.956872   -2.403109
 H      6.970682   -4.549504   -0.547473
 C     -1.800976   -1.414763   -2.305813
 C     -1.370021   -1.819324   -1.139650
 H     -2.788677   -0.984990   -2.424261
 H     -1.190588   -1.536115   -3.196485
 C     -0.940325   -2.205172    0.029690
 H     -1.192165   -3.226776    0.308340
 Cl     1.337659   -0.006792    2.483593
 Cl    -0.210495   -2.600003    2.805475
 O      0.361977   -0.081023   -0.127887
 O     -1.227051   -0.112265    1.721602
 C     -0.534977    1.952918    0.251536
 C     -1.838856    1.318693    0.088342
 C     -3.296145   -0.397331    0.785712
 C      1.795316    1.677715    0.058259
 C      2.042410    3.015605    0.349074
 C     -0.354940    3.293138    0.524213
 C      0.924582    3.806524    0.595941
 C     -2.787134    1.768247   -0.804511
 C     -3.993106    1.103098   -0.906349
 C     -4.286330   -0.000906   -0.114188
 H     -1.222768    3.919520    0.691431
 H      1.045928    4.853956    0.833046
 H     -2.562766    2.625472   -1.427341
 H     -4.717277    1.460070   -1.624794
 C     -5.614690   -0.746803   -0.221257
 C     -3.446349   -1.472895    1.724840
 N      0.540616    1.181019    0.063638
 N     -2.114320    0.250681    0.847754
 C      2.795570    0.713379   -0.308095
 C      3.464275    3.563182    0.406026
 C      4.253908    2.773245    1.456571
 C      4.107781    3.442181   -0.980206
 C      3.474840    5.039349    0.812392
 H      4.350379    1.723525    1.203957
 H      5.260271    3.177794    1.545854
 H      3.782151    2.836901    2.435654
 H      5.115836    3.851463   -0.957832
 H      4.185954    2.413326   -1.314084
 H      3.543267    3.998206   -1.727886
 H      3.039417    5.199741    1.797338
 H      4.503563    5.391701    0.856489
 H      2.952301    5.671153    0.095887
 N      3.571518   -0.057869   -0.656285
 N     -3.622881   -2.330561    2.468819
 C     -5.340991   -2.211020   -0.583990
 C     -6.364285   -0.633783    1.111504
 C     -6.500692   -0.146407   -1.317248
 H     -4.769264   -2.729845    0.176265
 H     -6.281896   -2.745167   -0.699487
 H     -4.798724   -2.289842   -1.524668
 H     -5.822946   -1.087479    1.933885
 H     -6.558386    0.407081    1.367887
 H     -7.325086   -1.139543    1.039612
 H     -6.038054   -0.200210   -2.301562
 H     -7.431255   -0.707870   -1.371601
 H     -6.766401    0.890208   -1.116499
