71

 Si     0.054680   -1.128878    0.871894
 O      1.403614   -1.905736    0.415646
 C      2.466197   -2.655066    0.881692
 C      3.569874   -2.573247   -0.131385
 H      2.814266   -2.242480    1.833563
 C      3.244050   -2.425063   -1.469174
 C      4.903148   -2.641803    0.245187
 C      4.238729   -2.328846   -2.428197
 H      2.203358   -2.376807   -1.751782
 C      5.903476   -2.552029   -0.710898
 H      5.164162   -2.758979    1.291333
 C      5.573669   -2.391949   -2.049125
 H      3.972315   -2.211573   -3.474672
 H      6.945368   -2.606187   -0.408068
 H      6.357233   -2.322174   -2.798430
 C      2.030354   -4.090528    1.095922
 C      1.088478   -4.236381    2.219129
 H      2.905870   -4.717018    1.301282
 H      1.559499   -4.452374    0.180798
 C      0.334649   -4.350350    3.147079
 H     -0.334758   -4.456421    3.966615
 Cl     0.573215   -0.643856    2.760863
 Cl    -1.231471   -2.567315    0.273573
 O      0.364471   -0.052447   -0.443864
 O     -1.307531    0.044917    1.173519
 C     -0.815659    1.878149   -0.577025
 C     -2.017555    1.065147   -0.720411
 C     -3.416389   -0.443274    0.433766
 C      1.487284    1.887250   -0.050976
 C      1.535162    3.279552   -0.013325
 C     -0.822945    3.258603   -0.577362
 C      0.343053    3.942681   -0.296750
 C     -2.964607    1.200563   -1.711070
 C     -4.127438    0.455241   -1.636886
 C     -4.401320   -0.369339   -0.550446
 H     -1.751493    3.783311   -0.766888
 H      0.312390    5.023272   -0.283519
 H     -2.780009    1.878790   -2.535572
 H     -4.848719    0.548951   -2.436515
 C     -5.700068   -1.160445   -0.429783
 C     -3.557769   -1.123728    1.692738
 N      0.333410    1.244080   -0.328115
 N     -2.245766    0.208377    0.284944
 C      2.610607    1.024618    0.183478
 C      2.823292    4.026717    0.322766
 C      3.887548    3.691008   -0.728978
 C      2.603530    5.542460    0.311936
 C      3.281106    3.620740    1.729054
 H      3.559239    3.974002   -1.728475
 H      4.802154    4.240538   -0.516064
 H      4.142763    2.637403   -0.743643
 H      3.539700    6.039888    0.557198
 H      2.293920    5.911221   -0.664793
 H      1.870536    5.861261    1.051399
 H      3.514584    2.564791    1.803293
 H      4.181506    4.169959    1.996467
 H      2.520619    3.851703    2.473918
 N      3.533249    0.373577    0.388784
 N     -3.698850   -1.611371    2.724001
 C     -5.361996   -2.649016   -0.283568
 C     -6.488482   -0.647483    0.781174
 C     -6.571130   -0.990316   -1.677531
 H     -4.792535   -2.862325    0.613707
 H     -6.278496   -3.232986   -0.230106
 H     -4.789845   -3.009705   -1.137083
 H     -5.953935   -0.785096    1.714518
 H     -6.725283    0.411059    0.679331
 H     -7.429017   -1.188090    0.865529
 H     -6.072327   -1.336901   -2.581379
 H     -7.476382   -1.583626   -1.565108
 H     -6.884552    0.041378   -1.829128
