71

 Si     0.429449   -0.616096    1.810140
 O      1.627532   -1.594818    2.156482
 C      2.717600   -2.194696    1.477517
 C      2.366412   -2.292435    0.023134
 H      3.579223   -1.537234    1.607708
 C      1.239807   -3.003115   -0.361886
 C      3.104947   -1.615028   -0.932873
 C      0.848650   -3.033756   -1.687105
 H      0.662861   -3.533205    0.382672
 C      2.712837   -1.634266   -2.262836
 H      3.989677   -1.064098   -0.639123
 C      1.582755   -2.342136   -2.642471
 H     -0.030021   -3.601841   -1.975983
 H      3.298229   -1.099913   -3.005979
 H      1.279529   -2.365391   -3.685746
 C      2.990232   -3.522143    2.136241
 C      3.357213   -3.351012    3.551006
 H      3.807523   -4.033742    1.611262
 H      2.101206   -4.151369    2.067486
 C      3.656791   -3.195898    4.703026
 H      3.930061   -3.078007    5.725201
 Cl     0.283112    0.943417    3.028712
 Cl    -1.298552   -1.597689    1.743587
 O      0.779616   -0.030364    0.270834
 O     -2.850662    1.988931    0.586763
 C     -0.519270    1.691446   -0.505535
 C     -1.554937    0.698810   -0.729065
 C     -3.746689    0.031389   -0.179468
 C      1.696957    2.079647    0.255753
 C      1.603743    3.443123    0.043345
 C     -0.664095    3.049407   -0.730969
 C      0.377688    3.902337   -0.453282
 C     -1.391193   -0.434185   -1.494021
 C     -2.418840   -1.341391   -1.607561
 C     -3.617002   -1.135971   -0.931972
 H     -1.608231    3.411773   -1.111167
 H      0.234759    4.959032   -0.631300
 H     -0.442392   -0.595675   -1.984861
 H     -2.275117   -2.220538   -2.213926
 C     -4.747579   -2.156210   -0.988312
 C     -4.912165    0.394864    0.579616
 N      0.640647    1.266347   -0.000189
 N     -2.731688    0.950222   -0.081247
 C      2.855263    1.399929    0.766180
 C      2.766342    4.382824    0.351417
 C      3.973341    3.988149   -0.507799
 C      2.404851    5.835461    0.029718
 C      3.095004    4.290542    1.846429
 H      3.737254    4.040603   -1.569981
 H      4.800135    4.670242   -0.320961
 H      4.330765    2.987080   -0.291389
 H      3.254634    6.475028    0.260071
 H      2.172127    5.981599   -1.023937
 H      1.565458    6.194934    0.622709
 H      3.426115    3.300670    2.141086
 H      3.896550    4.983631    2.093479
 H      2.232207    4.552724    2.457214
 N      3.767683    0.833304    1.171857
 N     -5.838171    0.693354    1.193449
 C     -5.009756   -2.676931    0.430152
 C     -6.000402   -1.500556   -1.580333
 C     -4.381755   -3.354305   -1.869758
 H     -5.349946   -1.898688    1.103436
 H     -5.780404   -3.444852    0.409023
 H     -4.112359   -3.122824    0.857051
 H     -6.365198   -0.677336   -0.977064
 H     -5.809738   -1.124560   -2.584758
 H     -6.804166   -2.230943   -1.649700
 H     -3.512764   -3.893551   -1.496707
 H     -5.212311   -4.057570   -1.882308
 H     -4.191386   -3.066483   -2.902183
