77

 Si    -0.183066    1.772993    1.730360
 O     -0.069509    1.705088    0.145328
 C      0.533083    2.643906   -0.722170
 C      1.799406    2.045663   -1.244381
 H      0.790502    3.521062   -0.124992
 C      1.789998    1.075681   -2.233770
 C      3.012715    2.459837   -0.708870
 C      2.976688    0.524002   -2.687393
 H      0.851319    0.750310   -2.649017
 C      4.204002    1.925493   -1.172367
 H      3.031120    3.215584    0.068367
 C      4.188143    0.953872   -2.162582
 H      2.955663   -0.231142   -3.467594
 H      5.146342    2.273335   -0.759245
 H      5.120846    0.534947   -2.530148
 C     -0.469438    3.052783   -1.763257
 C     -1.639227    3.677328   -1.128366
 H     -0.013258    3.772878   -2.453055
 H     -0.788309    2.184642   -2.327906
 C     -2.576285    4.185151   -0.576687
 H     -3.408481    4.647495   -0.102417
 Cl     1.051860    3.059509    2.592940
 Cl    -2.025803    1.953402    2.441843
 O     -0.941263    0.117003   -1.757079
 O      0.245221    0.193922    2.115786
 C     -1.215838   -0.859911    0.239587
 C      0.217637   -1.086546    0.219189
 C      2.236170   -0.710844    1.423121
 C     -3.013683    0.209941   -0.844060
 C     -3.891684   -0.160756    0.175353
 C     -2.049885   -1.304645    1.253510
 C     -3.386391   -0.949658    1.197297
 C      0.897818   -1.864792   -0.708053
 C      2.261072   -2.028419   -0.528550
 C      2.969223   -1.497550    0.547975
 H     -4.038291   -1.290129    1.984293
 H      2.786390   -2.642576   -1.243677
 C      4.433057   -1.850200    0.812168
 C      2.742396   -0.112037    2.627593
 N     -1.700609   -0.160321   -0.820630
 N      0.916113   -0.515677    1.205845
 C     -3.365845    0.970344   -2.009259
 C     -5.348076    0.285610    0.151916
 C     -6.033964   -0.284549   -1.094942
 C     -6.110596   -0.211568    1.383435
 C     -5.392466    1.817787    0.155642
 H     -5.993073   -1.373086   -1.103749
 H     -7.083006    0.004975   -1.107399
 H     -5.589077    0.075830   -2.015609
 H     -7.139301    0.140781    1.335589
 H     -6.147996   -1.298064    1.437633
 H     -5.685962    0.164474    2.312650
 H     -4.925480    2.248765   -0.721895
 H     -6.424935    2.161118    0.175994
 H     -4.892107    2.221004    1.034459
 N     -3.621378    1.579436   -2.950582
 N      3.138018    0.349544    3.603535
 C      5.277569   -0.588330    0.996628
 C      4.478180   -2.718353    2.077616
 C      5.028107   -2.647680   -0.351171
 H      4.967016    0.006812    1.846436
 H      6.316104   -0.864868    1.165221
 H      5.240048    0.040189    0.113227
 H      4.120775   -2.185229    2.953632
 H      3.880246   -3.621777    1.963710
 H      5.501747   -3.026024    2.282140
 H      4.991212   -2.094952   -1.288264
 H      6.075055   -2.859101   -0.142584
 H      4.535570   -3.607454   -0.496234
 C      0.165505   -2.543938   -1.823128
 H     -0.736218   -3.024419   -1.447317
 H     -0.127612   -1.809837   -2.569302
 H      0.795958   -3.300037   -2.286765
 C     -1.511518   -2.141438    2.373146
 H     -0.987345   -1.515327    3.091587
 H     -2.323427   -2.648798    2.889147
 H     -0.817492   -2.892466    2.000568
