77

 Si    -0.268759    1.396994    1.258517
 O      0.465871    2.248393    0.101515
 C      0.404959    3.645992   -0.069095
 C     -1.033422    4.032130   -0.230793
 H      0.808110    4.125212    0.824624
 C     -1.767802    3.521666   -1.290063
 C     -1.652127    4.850794    0.701256
 C     -3.108622    3.831427   -1.426500
 H     -1.286001    2.872250   -2.006958
 C     -2.997028    5.162506    0.571584
 H     -1.085060    5.239326    1.539347
 C     -3.726325    4.653874   -0.492386
 H     -3.673972    3.426196   -2.258728
 H     -3.475052    5.803552    1.306542
 H     -4.779452    4.899085   -0.596673
 C      1.253789    4.008270   -1.263541
 C      2.690968    4.060735   -0.940735
 H      0.967961    4.998177   -1.638216
 H      1.072300    3.283040   -2.057911
 C      3.851938    4.173537   -0.654853
 H      4.879191    4.281786   -0.402948
 Cl    -2.248724    1.324353    1.661957
 Cl     0.216651    2.473115    2.927253
 O     -0.563306    0.228006   -0.164777
 O      0.759822    0.128972    1.783770
 C     -0.390702   -1.879386    0.621268
 C      1.032060   -1.649826    0.411169
 C      2.772308   -0.074774    0.711560
 C     -2.461115   -1.050384   -0.143974
 C     -3.137851   -2.176075    0.341123
 C     -0.988029   -3.004775    1.147843
 C     -2.373620   -3.104421    1.024790
 C      1.827054   -2.420678   -0.419190
 C      3.128471   -1.984255   -0.633968
 C      3.643244   -0.819417   -0.087555
 H     -2.851808   -3.971862    1.454334
 H      3.755227   -2.582264   -1.278026
 C      5.076846   -0.367465   -0.353772
 C      3.109221    1.162156    1.353498
 N     -1.150764   -0.898641    0.097392
 N      1.524083   -0.521107    0.932701
 C     -3.042411   -0.030615   -0.972875
 C     -4.641719   -2.334750    0.146337
 C     -5.352874   -1.117050    0.748502
 C     -4.940879   -2.467689   -1.351644
 C     -5.165726   -3.588237    0.852698
 H     -5.084602   -0.190067    0.254964
 H     -6.430602   -1.232467    0.652947
 H     -5.124879   -1.010726    1.807912
 H     -6.009921   -2.599974   -1.505384
 H     -4.640966   -1.591197   -1.915123
 H     -4.437508   -3.333951   -1.779730
 H     -4.994350   -3.559728    1.927581
 H     -6.241053   -3.660951    0.702406
 H     -4.726825   -4.502744    0.456914
 N     -3.501224    0.720888   -1.710682
 N      3.415769    2.149797    1.853760
 C      5.034995    0.966219   -1.105622
 C      5.823234   -0.236560    0.979034
 C      5.831457   -1.382125   -1.217942
 H      4.524220    1.741645   -0.549154
 H      6.047004    1.314882   -1.300415
 H      4.532816    0.861160   -2.066026
 H      5.393358    0.517493    1.627716
 H      5.834908   -1.181991    1.520100
 H      6.857037    0.048820    0.795649
 H      5.382231   -1.508062   -2.201619
 H      6.847545   -1.026721   -1.377265
 H      5.906052   -2.359348   -0.743140
 C     -0.197810   -4.070212    1.852008
 H     -0.269093   -5.019541    1.316948
 H      0.847737   -3.795515    1.949607
 H     -0.608861   -4.219351    2.852480
 C      1.317814   -3.666364   -1.087596
 H      1.824817   -3.807189   -2.041115
 H      1.521410   -4.540439   -0.464891
 H      0.248367   -3.613555   -1.268718
