77

 Si    -0.727198   -2.281774   -0.805370
 O      0.891659   -1.868745    0.116617
 C      1.737717   -2.565857    0.648187
 C      2.848802   -1.998315    1.407218
 H      1.676002   -3.653808    0.579752
 C      2.701893   -0.734866    1.973916
 C      4.029130   -2.715064    1.576580
 C      3.736524   -0.179242    2.696347
 H      1.760001   -0.221206    1.859836
 C      5.077862   -2.146451    2.282545
 H      4.127561   -3.707272    1.146866
 C      4.929762   -0.884260    2.840555
 H      3.623260    0.796679    3.157816
 H      6.008235   -2.692753    2.407225
 H      5.749362   -0.446221    3.405005
 C      2.688229   -4.052888   -1.957845
 C      1.464227   -3.607017   -2.074778
 H      3.533990   -3.433837   -2.242755
 H      2.876870   -5.071459   -1.626454
 C      0.254039   -3.127153   -2.153616
 H     -0.253514   -3.263186   -3.105686
 Cl    -2.560754   -2.227918   -1.781055
 Cl    -1.044304   -3.919434    0.430509
 O     -1.242689   -1.203862    0.549056
 O     -0.371994   -0.643588   -1.599204
 C     -1.728910    0.896248   -0.082630
 C     -0.283956    1.066363   -0.157099
 C      1.635325    0.405968   -1.354333
 C     -3.433608   -0.578004    0.618563
 C     -4.430369    0.343978    0.284633
 C     -2.656188    1.852313   -0.447163
 C     -4.000173    1.535186   -0.271274
 C      0.446026    1.998876    0.559598
 C      1.801477    2.107125    0.275339
 C      2.429022    1.350654   -0.701677
 H     -4.729622    2.271612   -0.572492
 H      2.374556    2.830197    0.835112
 C      3.900363    1.542165   -1.061529
 C      2.083717   -0.427381   -2.431551
 N     -2.146617   -0.297160    0.361860
 N      0.337458    0.261775   -1.029863
 C     -3.671961   -1.824918    1.289262
 C     -5.907674    0.028901    0.497801
 C     -6.258212   -1.250672   -0.270683
 C     -6.177638   -0.130113    1.998519
 C     -6.798643    1.157017   -0.029976
 H     -5.715528   -2.116689    0.089154
 H     -7.319405   -1.467239   -0.164723
 H     -6.045979   -1.142818   -1.333092
 H     -7.233017   -0.336513    2.164840
 H     -5.616796   -0.947437    2.437280
 H     -5.930539    0.780966    2.542663
 H     -6.668783    1.322159   -1.098344
 H     -7.842300    0.891751    0.127132
 H     -6.628975    2.099461    0.488425
 N     -3.909124   -2.770871    1.897081
 N      2.472024   -1.051262   -3.314291
 C      4.655860    0.218550   -0.911639
 C      3.982831    2.058304   -2.503993
 C      4.568320    2.569918   -0.143940
 H      4.290591   -0.550155   -1.580795
 H      5.708520    0.367279   -1.141981
 H      4.591132   -0.158165    0.103426
 H      3.571813    1.353787   -3.219091
 H      3.452153    3.002889   -2.617083
 H      5.021577    2.230273   -2.779162
 H      4.543651    2.267250    0.901239
 H      5.615105    2.673590   -0.422867
 H      4.118936    3.557809   -0.227556
 C     -0.191653    2.862012    1.610938
 H     -0.411819    3.852771    1.207019
 H     -1.114939    2.425193    1.979799
 H      0.492799    2.989215    2.449674
 C     -2.255494    3.176029   -1.033009
 H     -2.919576    3.424465   -1.861127
 H     -2.344957    3.966827   -0.284394
 H     -1.235476    3.160020   -1.403267
