77

 Si     0.316086   -1.196646    1.863980
 O      1.780085   -1.924106    1.898095
 C      2.366048   -2.877592    1.074400
 C      2.312313   -2.331935   -0.325615
 H      1.775109   -3.796532    1.114268
 C      3.222416   -1.389022   -0.765268
 C      1.214983   -2.628717   -1.118370
 C      3.011408   -0.702622   -1.947429
 H      4.097061   -1.172036   -0.172519
 C      1.000162   -1.954958   -2.306389
 H      0.510811   -3.381787   -0.791039
 C      1.890003   -0.974368   -2.716466
 H      3.732428    0.040596   -2.275368
 H      0.139920   -2.205598   -2.918756
 H      1.730567   -0.443689   -3.650653
 C      3.744700   -3.160940    1.608075
 C      3.667999   -3.771508    2.944585
 H      4.287249   -3.839205    0.937642
 H      4.302554   -2.228523    1.681322
 C      3.589284   -4.273575    4.032178
 H      3.538970   -4.726046    4.993727
 Cl     0.482912   -0.259675    3.629307
 Cl    -0.811317   -2.854106    1.648203
 O      0.866646   -0.398448    0.444147
 O     -1.120719   -0.110865    1.595166
 C     -0.295441    1.367183   -0.310721
 C     -1.327375    0.382292   -0.607349
 C     -2.922897   -0.973859    0.483434
 C      1.803871    1.641318    0.744756
 C      1.760028    3.025463    0.583141
 C     -0.420643    2.736788   -0.486777
 C      0.625635    3.532129   -0.036521
 C     -1.891140    0.121298   -1.838927
 C     -2.981623   -0.745759   -1.867333
 C     -3.555854   -1.277005   -0.725577
 H      0.531500    4.600124   -0.162858
 H     -3.411215   -0.975584   -2.830797
 C     -4.794691   -2.165434   -0.766396
 C     -3.424736   -1.313440    1.787171
 N      0.786905    0.883613    0.301104
 N     -1.793889   -0.247699    0.486108
 C      2.874672    0.912484    1.358805
 C      2.889354    3.920204    1.083708
 C      3.027253    3.742545    2.600858
 C      4.186098    3.538587    0.359692
 C      2.599418    5.396622    0.799162
 H      3.291710    2.728714    2.879941
 H      3.809933    4.396443    2.980091
 H      2.102636    4.002430    3.114530
 H      4.997141    4.185296    0.688088
 H      4.489245    2.516988    0.560056
 H      4.086896    3.657369   -0.718734
 H      1.700378    5.747675    1.303201
 H      3.426624    6.000350    1.167086
 H      2.502622    5.603518   -0.265612
 N      3.748189    0.336384    1.829973
 N     -3.877385   -1.521266    2.823248
 C     -4.464839   -3.510325   -0.108118
 C     -5.941563   -1.456498   -0.036037
 C     -5.238144   -2.436819   -2.206599
 H     -4.196479   -3.409499    0.937221
 H     -5.329682   -4.168791   -0.156629
 H     -3.641990   -4.008377   -0.618750
 H     -5.719542   -1.275910    1.009879
 H     -6.175720   -0.500140   -0.502458
 H     -6.839820   -2.069397   -0.073969
 H     -4.470807   -2.946791   -2.787027
 H     -6.113034   -3.083842   -2.195978
 H     -5.522044   -1.527044   -2.733154
 C     -1.355799    0.719250   -3.107544
 H     -2.061798    1.448016   -3.512554
 H     -0.398026    1.203396   -2.950203
 H     -1.226343   -0.066733   -3.851924
 C     -1.644147    3.351188   -1.104936
 H     -1.791042    4.356794   -0.713954
 H     -1.526799    3.424307   -2.188272
 H     -2.533280    2.763345   -0.892767
