77

 Si     1.299002   -1.651224    2.831324
 O      2.354797   -2.333759    1.641781
 C      2.352277   -2.123713    0.399645
 C      3.171553   -2.831499   -0.515932
 H      1.690022   -1.357155   -0.004646
 C      4.061777   -3.821069   -0.071870
 C      3.085472   -2.503058   -1.874563
 C      4.857801   -4.472450   -0.981968
 H      4.109071   -4.055800    0.984922
 C      3.886999   -3.162722   -2.785525
 H      2.393863   -1.729831   -2.191080
 C      4.767593   -4.139659   -2.336976
 H      5.552156   -5.240484   -0.655156
 H      3.832356   -2.919639   -3.842077
 H      5.400271   -4.658441   -3.054684
 C     -0.779011   -2.864792   -0.197850
 C     -0.609202   -2.412963    1.012206
 H     -0.817584   -2.170696   -1.030692
 H     -0.893340   -3.931329   -0.378384
 C     -0.397041   -1.943557    2.216141
 H     -1.236127   -1.642757    2.835976
 Cl     1.827270    0.284697    2.989614
 Cl     1.787120   -2.653479    4.502015
 O      0.710505   -0.029858   -0.781645
 O     -1.686729    0.656431    2.010146
 C     -0.441262    1.739309    0.028544
 C     -1.631913    0.939157   -0.224466
 C     -3.256345   -0.444558    0.780297
 C      1.913110    1.759831   -0.028990
 C      1.964533    3.026655    0.552111
 C     -0.457295    2.987432    0.626178
 C      0.754057    3.617495    0.872260
 C     -2.135731    0.660088   -1.479681
 C     -3.241271   -0.173949   -1.579043
 C     -3.823447   -0.745430   -0.459330
 H      0.736785    4.594393    1.327060
 H     -3.642796   -0.377599   -2.557980
 C     -5.030306   -1.673192   -0.562457
 C     -3.679694   -0.996082    2.036907
 N      0.726551    1.129113   -0.271789
 N     -2.179122    0.394293    0.894717
 C      3.060771    0.968767   -0.376006
 C      3.298317    3.716479    0.818376
 C      4.114194    2.880146    1.809806
 C      4.052207    3.883643   -0.506199
 C      3.099266    5.107262    1.427324
 H      4.366734    1.901027    1.419966
 H      5.050128    3.384697    2.041529
 H      3.575040    2.740141    2.744911
 H      4.990785    4.408725   -0.339190
 H      4.295399    2.933952   -0.970459
 H      3.471388    4.466979   -1.219369
 H      2.594232    5.068312    2.390755
 H      4.069852    5.571354    1.593377
 H      2.536289    5.768770    0.771456
 N      3.943507    0.276543   -0.631827
 N     -3.965737   -1.457698    3.051515
 C     -4.642371   -3.064266   -0.048763
 C     -6.187647   -1.089825    0.256667
 C     -5.506956   -1.820399   -2.010696
 H     -4.350231   -3.054893    0.995157
 H     -5.485725   -3.746043   -0.141783
 H     -3.818151   -3.480639   -0.625877
 H     -5.955145   -1.017383    1.313196
 H     -6.457986   -0.095715   -0.096819
 H     -7.068509   -1.722361    0.163207
 H     -4.747671   -2.260446   -2.654789
 H     -6.372562   -2.479939   -2.040589
 H     -5.813317   -0.869648   -2.443171
 C     -1.478084    1.250655   -2.689847
 H     -1.337653    2.324459   -2.568079
 H     -0.499252    0.792738   -2.828664
 H     -2.077626    1.077945   -3.581221
 C     -1.764149    3.614468    1.000662
 H     -1.632321    4.664002    1.255653
 H     -2.478421    3.540066    0.181715
 H     -2.175323    3.089975    1.863020
