77

 Si     0.406251   -1.300045    1.977118
 O      0.314642   -1.621807    0.431912
 C     -0.211240   -2.572676   -0.469610
 C     -1.603345   -2.149881   -0.807874
 H      0.416173   -2.499429   -1.352236
 C     -2.610280   -2.220348    0.143818
 C     -1.891893   -1.644796   -2.065872
 C     -3.894913   -1.810595   -0.160131
 H     -2.394792   -2.607568    1.128378
 C     -3.175700   -1.218329   -2.372765
 H     -1.109153   -1.578562   -2.808616
 C     -4.181397   -1.305945   -1.421786
 H     -4.674135   -1.894843    0.590387
 H     -3.391137   -0.827368   -3.363053
 H     -5.190682   -0.987985   -1.666962
 C     -0.095467   -3.963865    0.100797
 C      1.301772   -4.271343    0.445668
 H     -0.453697   -4.685671   -0.642661
 H     -0.712423   -4.067280    0.993057
 C      2.446340   -4.492484    0.731153
 H      3.454884   -4.709146    0.991049
 Cl    -0.741211   -2.363166    3.194049
 Cl     2.258287   -1.200721    2.683891
 O      0.736466   -0.432516   -1.900504
 O     -0.091285    0.307853    1.985056
 C      1.200202    0.936705   -0.190780
 C     -0.229545    1.175722   -0.131069
 C     -2.134131    1.077467    1.290778
 C      2.855311   -0.473110   -1.092093
 C      3.829586    0.088973   -0.266919
 C      2.127028    1.558391    0.628560
 C      3.444431    1.139579    0.551644
 C     -0.990624    1.758617   -1.135655
 C     -2.329771    1.991433   -0.871341
 C     -2.934972    1.711598    0.352322
 H      4.172505    1.626996    1.178009
 H     -2.914521    2.464016   -1.645561
 C     -4.348438    2.192545    0.685386
 C     -2.546454    0.711229    2.617455
 N      1.573350   -0.006449   -1.095162
 N     -0.838209    0.812488    1.003897
 C      3.048250   -1.581431   -1.983068
 C      5.256811   -0.443210   -0.273377
 C      5.236003   -1.909256    0.173567
 C      5.844297   -0.304671   -1.682530
 C      6.153407    0.334088    0.694353
 H      4.672550   -2.540469   -0.503497
 H      6.250405   -2.301278    0.214458
 H      4.801182   -2.008799    1.166411
 H      6.874366   -0.655907   -1.692810
 H      5.299012   -0.884464   -2.418931
 H      5.848077    0.735050   -2.007351
 H      5.810725    0.260997    1.724979
 H      7.160323   -0.077969    0.661835
 H      6.230708    1.387642    0.431806
 N      3.158684   -2.489488   -2.680485
 N     -2.874810    0.427467    3.682139
 C     -5.236094    1.044852    1.167850
 C     -4.218932    3.265060    1.777121
 C     -5.021795    2.821710   -0.537403
 H     -4.845985    0.550783    2.049174
 H     -6.219783    1.430403    1.427693
 H     -5.367754    0.298349    0.391500
 H     -3.809962    2.864581    2.699806
 H     -3.583706    4.089035    1.454524
 H     -5.197722    3.678856    2.011119
 H     -5.113282    2.118842   -1.363850
 H     -6.028829    3.135495   -0.269466
 H     -4.499293    3.707682   -0.893672
 C      1.701365    2.641744    1.571082
 H      0.995795    3.319962    1.094432
 H      1.223200    2.207043    2.446420
 H      2.563430    3.216708    1.901381
 C     -0.361109    2.177326   -2.427727
 H     -1.015867    2.860018   -2.966017
 H      0.588871    2.675466   -2.243849
 H     -0.170352    1.300102   -3.041355
