77

 Si     0.799107   -1.103597    1.317537
 O      0.634163   -2.207613    0.153097
 C      1.349089   -3.416931    0.042255
 C      2.810653   -3.090746   -0.002241
 H      1.143314   -4.026826    0.923618
 C      3.306970   -2.296942   -1.024726
 C      3.661550   -3.528384    1.000783
 C      4.644507   -1.946977   -1.053823
 H      2.638165   -1.945249   -1.797191
 C      5.003204   -3.178815    0.978529
 H      3.274328   -4.136672    1.810065
 C      5.496066   -2.388284   -0.048496
 H      5.021715   -1.324315   -1.857858
 H      5.663420   -3.524503    1.768607
 H      6.547225   -2.114805   -0.067848
 C      0.864619   -4.134323   -1.194066
 C     -0.409510   -4.842123   -0.974867
 H      1.603520   -4.881922   -1.505781
 H      0.757984   -3.410167   -2.002918
 C     -1.409529   -5.474835   -0.770123
 H     -2.289181   -6.044206   -0.590244
 Cl     2.482323   -0.107459    1.830873
 Cl     0.758685   -2.269055    2.996476
 O      0.606880    0.057536   -0.129044
 O     -0.735958   -0.462951    1.736729
 C     -0.574101    1.847414    0.571698
 C     -1.711037    0.981143    0.292174
 C     -2.536842   -1.221665    0.544473
 C      1.688263    2.072274   -0.053688
 C      1.733374    3.386409    0.427302
 C     -0.601115    3.123863    1.091634
 C      0.584637    3.856204    1.037948
 C     -2.715570    1.290724   -0.609092
 C     -3.648377    0.298847   -0.882701
 C     -3.599422   -0.969913   -0.326063
 H      0.577978    4.848862    1.462464
 H     -4.436490    0.533441   -1.581943
 C     -4.639419   -2.037348   -0.656725
 C     -2.299025   -2.472646    1.203500
 N      0.585819    1.329755    0.123437
 N     -1.655759   -0.244835    0.821665
 C      2.727359    1.433638   -0.813513
 C      3.001206    4.224823    0.307292
 C      4.156269    3.481055    0.988299
 C      3.298370    4.471972   -1.176519
 C      2.838580    5.582566    0.996333
 H      4.379801    2.532399    0.514067
 H      5.061315    4.083566    0.945587
 H      3.937377    3.287940    2.037304
 H      4.191528    5.085063   -1.278405
 H      3.475071    3.552818   -1.723990
 H      2.478818    5.002011   -1.660726
 H      2.631840    5.484248    2.060829
 H      3.765041    6.145520    0.901625
 H      2.052173    6.186018    0.545779
 N      3.527038    0.974124   -1.498337
 N     -2.138500   -3.488665    1.715012
 C     -3.936247   -3.201281   -1.361136
 C     -5.323377   -2.495655    0.636671
 C     -5.721420   -1.492480   -1.593878
 H     -3.161698   -3.649350   -0.751929
 H     -4.656784   -3.980733   -1.600015
 H     -3.479314   -2.878599   -2.295287
 H     -4.634628   -2.959496    1.332961
 H     -5.807834   -1.662383    1.144289
 H     -6.091588   -3.231006    0.406668
 H     -5.320091   -1.176965   -2.555472
 H     -6.445421   -2.279352   -1.795844
 H     -6.269648   -0.659249   -1.156702
 C     -1.835542    3.701346    1.722527
 H     -2.166844    4.589133    1.179877
 H     -2.645989    2.980050    1.752916
 H     -1.606088    4.002777    2.746757
 C     -2.792947    2.628227   -1.289476
 H     -3.318227    2.531253   -2.238060
 H     -3.342941    3.339183   -0.669436
 H     -1.802885    3.033120   -1.481495
