77

 Si    -0.358256   -2.329347   -0.638621
 O      1.230550   -2.147707   -0.448901
 C      2.332891   -2.323839    0.369813
 C      2.167843   -1.505481    1.620812
 H      3.176920   -1.920672   -0.196588
 C      0.987034   -1.561856    2.340446
 C      3.184833   -0.672589    2.064102
 C      0.803278   -0.777949    3.464403
 H      0.208011   -2.228350    2.018499
 C      3.015378    0.109670    3.196962
 H      4.123442   -0.634740    1.527450
 C      1.819216    0.063885    3.897610
 H     -0.133220   -0.835871    4.011048
 H      3.822738    0.754182    3.533532
 H      1.682780    0.674346    4.786039
 C      2.624096   -3.780238    0.634743
 C      2.772650   -4.499023   -0.639731
 H      3.553153   -3.865735    1.211798
 H      1.819576   -4.229012    1.214252
 C      2.881781   -5.043131   -1.703973
 H      2.985288   -5.542965   -2.637831
 Cl    -1.373004   -2.939565   -2.266198
 Cl    -0.646824   -3.993048    0.503768
 O     -1.203973   -1.376430    0.509620
 O     -0.231999   -0.759719   -1.538974
 C     -1.470120    0.807374   -0.035660
 C     -0.013438    0.884857   -0.028452
 C      1.816180    0.223855   -1.366679
 C     -3.322547   -0.662091    0.087007
 C     -4.214505    0.350547   -0.263004
 C     -2.296129    1.858974   -0.404349
 C     -3.656165    1.597165   -0.506621
 C      0.783272    1.734867    0.709648
 C      2.122092    1.827836    0.336296
 C      2.664250    1.136968   -0.734160
 H     -4.300721    2.409910   -0.804971
 H      2.747096    2.505658    0.897447
 C      4.083912    1.383489   -1.239832
 C      2.172170   -0.632328   -2.458906
 N     -2.004623   -0.401426    0.163632
 N      0.544613    0.112254   -0.971716
 C     -3.698338   -2.009574    0.412689
 C     -5.713095    0.088542   -0.385697
 C     -5.944139   -0.991240   -1.449979
 C     -6.257617   -0.349697    0.979209
 C     -6.465453    1.350758   -0.816614
 H     -5.492542   -1.940986   -1.186738
 H     -7.011004   -1.165549   -1.573984
 H     -5.545475   -0.685070   -2.416282
 H     -7.330693   -0.516800    0.912647
 H     -5.810511   -1.273317    1.329437
 H     -6.090142    0.415761    1.736182
 H     -6.144744    1.712578   -1.792266
 H     -7.526953    1.124359   -0.894558
 H     -6.365190    2.161460   -0.096545
 N     -4.034805   -3.072290    0.692945
 N      2.450398   -1.311805   -3.342447
 C      4.902883    0.089978   -1.242906
 C      3.976966    1.948914   -2.663364
 C      4.815737    2.404474   -0.364472
 H      4.463931   -0.686531   -1.857145
 H      5.895934    0.289069   -1.640342
 H      5.029347   -0.305113   -0.238882
 H      3.519579    1.244470   -3.350848
 H      3.394499    2.869271   -2.683525
 H      4.968053    2.180639   -3.048312
 H      4.917012    2.067197    0.665732
 H      5.821033    2.555766   -0.752919
 H      4.326289    3.376929   -0.361833
 C      0.249782    2.531319    1.863708
 H      0.334674    3.601983    1.666730
 H     -0.787410    2.289889    2.072794
 H      0.840467    2.304508    2.750984
 C     -1.747736    3.220280   -0.724635
 H     -2.467822    3.780809   -1.317502
 H     -1.553027    3.780174    0.191501
 H     -0.819405    3.146118   -1.286522
