77

 Si    -0.376405   -1.877919    0.988990
 O      1.044322   -1.251654    0.641524
 C      2.288103   -1.855585    0.303686
 C      2.033143   -2.965097   -0.665340
 H      2.844813   -1.063995   -0.192215
 C      1.718323   -4.248991   -0.240743
 C      2.011779   -2.673401   -2.021458
 C      1.393168   -5.231003   -1.159337
 H      1.718714   -4.492493    0.812027
 C      1.685480   -3.652083   -2.945164
 H      2.240253   -1.674560   -2.362285
 C      1.375767   -4.934258   -2.515425
 H      1.149724   -6.231204   -0.813501
 H      1.674407   -3.409372   -4.003425
 H      1.120448   -5.704815   -3.237416
 C      3.004496   -2.245308    1.571672
 C      3.088161   -1.124771    2.522209
 H      4.015035   -2.595881    1.328221
 H      2.479114   -3.060567    2.067170
 C      3.130987   -0.228890    3.320011
 H      3.193180    0.545207    4.046036
 Cl    -1.361976   -2.601157   -0.570108
 Cl    -0.352866   -3.117310    2.534967
 O     -1.235508   -0.546814    1.544153
 O      0.279277    0.278394   -1.771694
 C     -1.450154    1.050292   -0.062465
 C     -0.044711    1.316326    0.184853
 C      2.101187    1.222323   -0.772444
 C     -3.320021   -0.247274    0.625054
 C     -4.148220    0.358293   -0.306951
 C     -2.222091    1.691937   -1.022312
 C     -3.551940    1.318973   -1.123485
 C      0.449107    1.920950    1.324893
 C      1.806811    2.184181    1.382241
 C      2.655152    1.869471    0.332626
 H     -4.153857    1.811883   -1.872135
 H      2.197156    2.672828    2.258687
 C      4.137434    2.231484    0.361585
 C      2.828456    0.811424   -1.938521
 N     -2.014876    0.100620    0.681044
 N      0.770936    0.908512   -0.824427
 C     -3.712417   -1.249030    1.577901
 C     -5.620294   -0.025282   -0.431633
 C     -5.713989   -1.515667   -0.780096
 C     -6.331221    0.278655    0.892474
 C     -6.311924    0.770858   -1.541209
 H     -5.301625   -2.151310   -0.004153
 H     -6.755694   -1.801986   -0.910107
 H     -5.192034   -1.737520   -1.709975
 H     -7.388076    0.033011    0.810890
 H     -5.932383   -0.296780    1.721109
 H     -6.257776    1.335081    1.148127
 H     -5.870827    0.587732   -2.519719
 H     -7.355887    0.469257   -1.600726
 H     -6.300492    1.843116   -1.351937
 N     -4.006142   -2.046798    2.351917
 N      3.392277    0.457506   -2.876827
 C      4.983609    0.960000    0.245184
 C      4.431001    3.194362   -0.796072
 C      4.521770    2.930757    1.668245
 H      4.832468    0.441112   -0.693915
 H      6.040317    1.213016    0.302647
 H      4.764637    0.271553    1.056979
 H      4.244649    2.747269   -1.766216
 H      3.828063    4.098284   -0.719712
 H      5.476863    3.494673   -0.774120
 H      4.356374    2.297254    2.536706
 H      5.582136    3.175399    1.646615
 H      3.982185    3.864725    1.813845
 C     -1.609207    2.728389   -1.912675
 H     -1.014171    3.431117   -1.331215
 H     -0.955646    2.237282   -2.633470
 H     -2.379741    3.278552   -2.448775
 C     -0.479571    2.289412    2.441710
 H      0.032356    2.898494    3.182618
 H     -1.334888    2.851414    2.066474
 H     -0.847011    1.387396    2.928313
