77

 Si     0.444573   -1.255110    0.920042
 O      1.852954   -1.872905    0.396447
 C      2.994218   -2.517226    0.834659
 C      4.026081   -2.415571   -0.248758
 H      3.365532   -2.026497    1.739405
 C      3.612701   -2.415690   -1.570503
 C      5.378011   -2.321831    0.046244
 C      4.537315   -2.306636   -2.595597
 H      2.558180   -2.492401   -1.788925
 C      6.309265   -2.218649   -0.976011
 H      5.707699   -2.323986    1.079476
 C      5.890778   -2.207314   -2.298691
 H      4.202652   -2.305919   -3.628914
 H      7.366555   -2.145960   -0.737309
 H      6.620146   -2.126767   -3.099806
 C      2.687865   -3.967009    1.153961
 C      1.845964   -4.123002    2.352834
 H      3.623209   -4.512305    1.323606
 H      2.182856   -4.414806    0.297296
 C      1.173885   -4.244850    3.340724
 H      0.576128   -4.357614    4.213030
 Cl     1.058620   -0.597727    2.732376
 Cl    -0.674488   -2.865991    0.432205
 O      0.511201   -0.180386   -0.427663
 O     -1.045732   -0.290222    1.337175
 C     -0.846909    1.619438   -0.302626
 C     -1.924190    0.659007   -0.511468
 C     -3.092984   -1.038956    0.641063
 C      1.485425    1.824809    0.038449
 C      1.377943    3.193604    0.284175
 C     -1.033329    2.970483   -0.056029
 C      0.096207    3.724699    0.234080
 C     -2.841479    0.647981   -1.540642
 C     -3.891015   -0.264899   -1.444130
 C     -4.075652   -1.094995   -0.352332
 H     -0.043537    4.774737    0.441650
 H     -4.603058   -0.292892   -2.255314
 C     -5.261519   -2.046353   -0.233749
 C     -3.135776   -1.740503    1.895252
 N      0.381541    1.101313   -0.218409
 N     -2.030479   -0.236232    0.484989
 C      2.716364    1.087606    0.017618
 C      2.601768    4.044735    0.610291
 C      3.567604    4.010193   -0.580258
 C      2.213360    5.503662    0.867204
 C      3.263494    3.496215    1.880405
 H      3.096246    4.396542   -1.483338
 H      4.434690    4.633046   -0.370336
 H      3.933370    3.011660   -0.791438
 H      3.109879    6.076311    1.096133
 H      1.750804    5.970397   -0.001159
 H      1.541472    5.611080    1.717288
 H      3.624220    2.481476    1.757524
 H      4.119335    4.113076    2.146804
 H      2.572575    3.508415    2.722297
 N      3.729997    0.549828   -0.004827
 N     -3.205445   -2.247717    2.924465
 C     -4.734773   -3.479428   -0.091614
 C     -6.106171   -1.642857    0.980737
 C     -6.151091   -1.986163   -1.478323
 H     -4.141429   -3.619151    0.804746
 H     -5.568135   -4.177061   -0.038819
 H     -4.121475   -3.761173   -0.946225
 H     -5.554744   -1.711096    1.911948
 H     -6.479317   -0.624022    0.881913
 H     -6.968061   -2.301352    1.067427
 H     -5.617121   -2.271680   -2.383325
 H     -6.977605   -2.684393   -1.361821
 H     -6.586833   -0.999971   -1.630736
 C     -2.400988    3.591920   -0.065988
 H     -3.143137    2.914458    0.350064
 H     -2.398123    4.507361    0.522739
 H     -2.697526    3.845055   -1.085837
 C     -2.714880    1.549676   -2.735406
 H     -2.750426    0.949027   -3.646122
 H     -3.545283    2.258310   -2.770627
 H     -1.779971    2.101148   -2.725665
