89

 Si     0.213310    0.306000    2.110810
 O      0.084191    1.748056    1.380371
 C     -0.926420    2.431958    0.739627
 C     -0.902592    2.208915   -0.742927
 H     -1.895778    2.092331    1.121999
 C      0.128699    1.503921   -1.326577
 C     -1.902145    2.731173   -1.551302
 C      0.156527    1.279339   -2.691752
 H      0.906448    1.132714   -0.698094
 C     -1.882517    2.518277   -2.919682
 H     -2.706121    3.305184   -1.109002
 C     -0.855496    1.783222   -3.495069
 H      0.972901    0.719871   -3.134017
 H     -2.673157    2.929736   -3.540875
 H     -0.839810    1.614215   -4.568125
 C     -0.754274    3.900278    1.078237
 C      0.435942    4.471296    0.434918
 H     -0.664516    3.997955    2.163839
 H     -1.630954    4.475655    0.757730
 C      1.392909    4.934743   -0.122912
 H      2.233579    5.369098   -0.608971
 Cl    -1.074837   -0.670713    3.326676
 Cl     1.385038    1.019009    3.630784
 O     -0.636970   -0.261270    0.642161
 O      1.474252   -0.714287    1.599455
 C     -0.084008   -2.404626    0.244833
 C      1.130719   -1.846704   -0.336827
 C      2.863021   -0.231455   -0.135336
 C     -2.314296   -1.802943    0.777675
 C     -2.688805   -3.148776    0.879685
 C     -0.400585   -3.736374    0.308925
 C     -1.689356   -4.091110    0.679372
 C      1.552596   -2.159009   -1.605156
 C      2.636288   -1.481495   -2.135834
 C      3.317447   -0.497888   -1.429911
 H      0.348767   -4.481450    0.072617
 H     -1.918229   -5.143791    0.757297
 H      1.018044   -2.905156   -2.179015
 H      2.942717   -1.733543   -3.140868
 C      4.497907    0.243520   -2.063960
 C      3.437562    0.700263    0.844878
 N     -1.023696   -1.501326    0.565826
 N      1.800385   -0.908516    0.341686
 C     -3.200489   -0.628384    0.676725
 C     -4.112931   -3.582600    1.228648
 C     -5.139043   -2.940454    0.291542
 C     -4.276534   -5.103041    1.108906
 C     -4.387588   -3.191748    2.684592
 H     -4.907246   -3.143318   -0.752652
 H     -6.125407   -3.354290    0.491898
 H     -5.212457   -1.869673    0.419795
 H     -5.303831   -5.372788    1.345422
 H     -4.075290   -5.463015    0.100995
 H     -3.642017   -5.649668    1.803730
 H     -4.335797   -2.120465    2.833846
 H     -5.383759   -3.515914    2.980463
 H     -3.674765   -3.658739    3.362728
 C     -3.762229    0.033264    1.752966
 C     -3.460695   -0.196838   -0.617546
 C     -4.889423    1.523530    0.242373
 C     -4.315988    0.865683   -0.836542
 C     -4.602857    1.112044    1.535455
 H     -3.543518   -0.278300    2.762375
 H     -5.039523    1.629266    2.384911
 H     -5.558926    2.362881    0.075266
 H     -4.531291    1.183634   -1.851038
 H     -3.010331   -0.703632   -1.460000
 C      4.329732    0.202784    1.782637
 C      3.051670    2.027748    0.875811
 C      4.516525    2.392105    2.738567
 C      3.598857    2.876153    1.819930
 C      4.875383    1.051112    2.726135
 H      4.605572   -0.843597    1.768900
 H      5.583951    0.666007    3.453014
 H      4.949558    3.061719    3.476226
 H      3.295926    3.917025    1.839105
 H      2.317418    2.407989    0.185487
 C      5.753348    0.082733   -1.202854
 H      5.654011    0.556532   -0.235587
 H      5.997168   -0.966986   -1.045309
 H      6.603699    0.542909   -1.702577
 C      4.141153    1.724062   -2.225566
 H      4.942605    2.242933   -2.748301
 H      3.230906    1.855102   -2.807997
 H      4.004537    2.217278   -1.272183
 C      4.818391   -0.314632   -3.456279
 H      3.995691   -0.188117   -4.157956
 H      5.669100    0.223657   -3.869085
 H      5.092044   -1.368249   -3.430168
