89

 Si     0.092186    1.492504   -0.842954
 O     -1.277896    1.588813    0.002005
 C     -1.886078    2.059886    1.148784
 C     -1.232118    1.464159    2.362047
 H     -2.914013    1.687971    1.104990
 C     -1.989119    0.803363    3.317723
 C      0.139443    1.544888    2.525394
 C     -1.377292    0.197397    4.405469
 H     -3.066573    0.756935    3.215510
 C      0.760054    0.926960    3.594721
 H      0.721486    2.086588    1.802303
 C      0.002443    0.245094    4.538461
 H     -1.980817   -0.317883    5.147434
 H      1.838855    0.989617    3.699499
 H      0.486265   -0.237246    5.383422
 C     -1.947248    3.567292    1.191168
 C     -2.634556    4.098492    0.003883
 H     -2.491944    3.883312    2.089474
 H     -0.941918    3.980905    1.235824
 C     -3.198929    4.513563   -0.970898
 H     -3.697443    4.906572   -1.824331
 Cl     0.100867    1.721037   -2.845607
 Cl     0.914536    3.314876   -0.394130
 O      1.310228    0.793822    0.116449
 O     -0.327705   -0.197341   -1.170093
 C      1.162243   -1.447123    0.513713
 C     -0.263545   -1.317660    0.782243
 C     -2.324144   -0.807610   -0.283570
 C      3.128717   -0.448347   -0.372163
 C      3.823246   -1.658351   -0.324176
 C      1.812596   -2.656267    0.600818
 C      3.129020   -2.748718    0.186461
 C     -0.927863   -1.888754    1.836636
 C     -2.311652   -1.887420    1.825167
 C     -3.049794   -1.382061    0.762872
 H      1.275861   -3.523959    0.961591
 H      3.611040   -3.713432    0.253435
 H     -0.369973   -2.328697    2.651890
 H     -2.819590   -2.331593    2.668299
 C     -4.576656   -1.475042    0.749578
 C     -2.803201   -0.327110   -1.588181
 N      1.848403   -0.396364    0.046651
 N     -0.987106   -0.768235   -0.200872
 C      3.616731    0.865730   -0.817557
 C      5.271106   -1.799065   -0.799013
 C      6.182161   -0.881449    0.020962
 C      5.776137   -3.235988   -0.621464
 C      5.359144   -1.454387   -2.288475
 H      6.105665   -1.092379    1.086904
 H      7.220172   -1.035917   -0.267766
 H      5.957510    0.165880   -0.134206
 H      6.805565   -3.298712   -0.968529
 H      5.773371   -3.553600    0.419970
 H      5.201998   -3.954970   -1.203528
 H      5.111430   -0.418944   -2.484020
 H      6.372997   -1.619132   -2.648577
 H      4.695497   -2.081405   -2.882593
 C      3.428202    1.256358   -2.131461
 C      4.146767    1.745489    0.111587
 C      4.374203    3.397038   -1.611879
 C      4.534547    3.010511   -0.288432
 C      3.815326    2.522525   -2.530934
 H      2.976322    0.578644   -2.843268
 H      3.670185    2.828321   -3.562133
 H      4.678727    4.391059   -1.926507
 H      4.960335    3.698733    0.435236
 H      4.258764    1.443683    1.144663
 C     -2.626278   -1.183999   -2.665918
 C     -3.305512    0.943732   -1.786149
 C     -3.507773    0.490806   -4.134744
 C     -3.663313    1.351091   -3.059200
 C     -2.983131   -0.779473   -3.937539
 H     -2.213375   -2.171549   -2.509839
 H     -2.852540   -1.456229   -4.776611
 H     -3.791144    0.812553   -5.133062
 H     -4.057452    2.351064   -3.208141
 H     -3.389509    1.634311   -0.967351
 C     -5.050198   -2.198124   -0.514760
 H     -4.823913   -1.644964   -1.416689
 H     -4.600137   -3.186061   -0.599993
 H     -6.129572   -2.334143   -0.480267
 C     -5.177100   -0.068842    0.816326
 H     -6.263815   -0.127612    0.833999
 H     -4.866337    0.455997    1.717693
 H     -4.899533    0.534731   -0.038078
 C     -5.096782   -2.264828    1.956834
 H     -4.853213   -1.788846    2.905016
 H     -6.182050   -2.326154    1.904730
 H     -4.720498   -3.286316    1.977822
