89

 Si     0.245226    1.751340    0.135730
 O     -1.182689    1.453097    0.847358
 C     -1.521857    1.517947    2.196948
 C     -1.357214    0.139676    2.772455
 H     -0.816106    2.176837    2.701932
 C     -2.418264   -0.705232    3.045587
 C     -0.063566   -0.305008    3.010441
 C     -2.194213   -1.979169    3.550125
 H     -3.433947   -0.374797    2.880291
 C      0.169807   -1.577398    3.496859
 H      0.762344    0.358280    2.810413
 C     -0.899635   -2.420989    3.771876
 H     -3.038060   -2.626548    3.770815
 H      1.188126   -1.908608    3.677880
 H     -0.722895   -3.418419    4.164958
 C     -2.894083    2.121273    2.337434
 C     -2.920277    3.491026    1.803342
 H     -3.180864    2.149382    3.395574
 H     -3.632172    1.519549    1.809939
 C     -2.918105    4.605030    1.356826
 H     -2.926474    5.598118    0.974600
 Cl     0.433929    2.986572   -1.448479
 Cl     1.080015    3.021172    1.513026
 O      1.350351    0.570020    0.670105
 O     -0.178868    0.516038   -1.059660
 C      1.135006   -1.529563   -0.197926
 C     -0.309657   -1.478185   -0.018054
 C     -2.252043   -0.367181   -0.811587
 C      3.190813   -0.338994   -0.267402
 C      3.862244   -1.432924   -0.815888
 C      1.759098   -2.640421   -0.717739
 C      3.107882   -2.583028   -1.016384
 C     -1.078041   -2.491681    0.495076
 C     -2.452732   -2.408535    0.372191
 C     -3.079885   -1.372181   -0.308001
 H      1.178068   -3.531263   -0.917026
 H      3.568312   -3.465058   -1.437584
 H     -0.604773   -3.335154    0.977335
 H     -3.042419   -3.210865    0.789431
 C     -4.594368   -1.374528   -0.524002
 C     -2.590796    0.751844   -1.703917
 N      1.876262   -0.435607    0.018961
 N     -0.930114   -0.446234   -0.601197
 C      3.738745    0.979946    0.084008
 C      5.347188   -1.392691   -1.184047
 C      5.586976   -0.314761   -2.244865
 C      6.187471   -1.115109    0.065519
 C      5.810869   -2.732514   -1.768328
 H      5.381553    0.680241   -1.871817
 H      6.627721   -0.332666   -2.563133
 H      4.972723   -0.481176   -3.128897
 H      7.246342   -1.156438   -0.183038
 H      5.992673   -0.135324    0.482069
 H      6.005790   -1.857628    0.841591
 H      5.283041   -2.993294   -2.684172
 H      6.867402   -2.666325   -2.020156
 H      5.704972   -3.554755   -1.062525
 C      3.679080    2.011453   -0.836487
 C      4.200202    1.206947    1.369830
 C      4.620616    3.496253    0.793155
 C      4.650523    2.465577    1.722212
 C      4.128460    3.270586   -0.483124
 H      3.279474    1.837376   -1.826514
 H      4.084239    4.079187   -1.205713
 H      4.974470    4.485205    1.069852
 H      5.023064    2.643994    2.726228
 H      4.210552    0.403351    2.094494
 C     -2.337043    0.572258   -3.056719
 C     -3.027063    1.973926   -1.234933
 C     -3.015338    2.832842   -3.474661
 C     -3.245762    3.014473   -2.120040
 C     -2.554907    1.609352   -3.943136
 H     -1.973281   -0.380218   -3.418512
 H     -2.364961    1.463537   -5.002327
 H     -3.188511    3.649865   -4.169619
 H     -3.588798    3.972368   -1.742655
 H     -3.164544    2.132270   -0.182649
 C     -4.901441   -1.382213   -2.024726
 H     -4.567414   -0.478046   -2.517193
 H     -4.435750   -2.231951   -2.521874
 H     -5.975459   -1.461070   -2.183295
 C     -5.219787   -0.146980    0.140196
 H     -6.299355   -0.158102    0.002332
 H     -5.030409   -0.135422    1.211310
 H     -4.849708    0.778645   -0.280231
 C     -5.243707   -2.619023    0.092678
 H     -5.095813   -2.675762    1.169704
 H     -6.317924   -2.584852   -0.078367
 H     -4.880535   -3.542960   -0.354084
