89

 Si    -0.398282    0.760840    0.302289
 O      0.232901    2.144761    0.885988
 C     -0.100397    3.292840    1.585033
 C     -1.308128    3.940962    0.970846
 H      0.747539    3.967858    1.457845
 C     -2.598016    3.536231    1.275238
 C     -1.120355    4.919259    0.005211
 C     -3.684478    4.092435    0.621776
 H     -2.761963    2.777428    2.025103
 C     -2.201761    5.480711   -0.654514
 H     -0.117319    5.245726   -0.237111
 C     -3.489511    5.065152   -0.348418
 H     -4.688984    3.767075    0.875695
 H     -2.038191    6.246758   -1.406820
 H     -4.340954    5.504209   -0.860507
 C     -0.226774    2.980616    3.056363
 C      0.980347    2.306711    3.559753
 H     -0.383733    3.904661    3.626120
 H     -1.078090    2.327945    3.233374
 C      1.961519    1.749428    3.970014
 H      2.820155    1.272089    4.375180
 Cl    -1.709308    0.251053    1.742209
 Cl    -1.173888    1.604483   -1.366491
 O     -0.470134   -0.745473   -0.620378
 O      1.071117    0.069427    0.860923
 C      0.310407   -2.470879    0.634995
 C      1.634003   -2.026287    0.221409
 C      2.976643   -0.147809   -0.328518
 C     -1.989284   -2.299397    0.053036
 C     -2.305855   -3.416108    0.832664
 C      0.048380   -3.558233    1.428168
 C     -1.262223   -3.992205    1.545657
 C      2.588074   -2.872337   -0.294453
 C      3.747368   -2.332364   -0.822903
 C      3.971124   -0.960310   -0.876405
 H      0.860001   -4.061051    1.938496
 H     -1.453586   -4.840993    2.185724
 H      2.404525   -3.939126   -0.311319
 H      4.480355   -3.013778   -1.230427
 C      5.244801   -0.391823   -1.503860
 C      2.910254    1.318096   -0.267703
 N     -0.720511   -1.849479    0.041586
 N      1.883831   -0.712798    0.214813
 C     -2.844602   -1.575316   -0.901822
 C     -3.720861   -3.989206    0.932110
 C     -4.560985   -3.056554    1.810270
 C     -4.355301   -4.151658   -0.451474
 C     -3.709181   -5.376345    1.588581
 H     -4.662682   -2.070540    1.373790
 H     -5.562884   -3.462373    1.939606
 H     -4.122239   -2.940647    2.800523
 H     -5.314602   -4.656592   -0.356061
 H     -4.541815   -3.206943   -0.942520
 H     -3.732157   -4.758345   -1.106286
 H     -3.380143   -5.349542    2.625380
 H     -4.719752   -5.779711    1.593736
 H     -3.084013   -6.084589    1.046786
 C     -3.811244   -0.663442   -0.521667
 C     -2.592797   -1.805216   -2.247151
 C     -4.306747   -0.236781   -2.830990
 C     -3.325341   -1.141827   -3.211824
 C     -4.544863    0.003391   -1.486790
 H     -3.980450   -0.449487    0.521660
 H     -5.301266    0.720622   -1.183774
 H     -4.885017    0.287230   -3.586740
 H     -3.131078   -1.330873   -4.263140
 H     -1.826069   -2.508404   -2.541962
 C      3.366955    1.991899    0.848819
 C      2.280740    1.998608   -1.294588
 C      2.664049    4.057417   -0.138802
 C      2.162747    3.372359   -1.232889
 C      3.254234    3.366528    0.907868
 H      3.820665    1.448807    1.665957
 H      3.632147    3.900956    1.773638
 H      2.591862    5.140492   -0.098033
 H      1.684167    3.907592   -2.046373
 H      1.894164    1.461508   -2.150164
 C      6.015226    0.421838   -0.460059
 H      5.462103    1.291747   -0.129786
 H      6.258590   -0.179947    0.414703
 H      6.953494    0.775313   -0.883632
 C      4.882176    0.483134   -2.707112
 H      5.788705    0.833704   -3.197074
 H      4.306339   -0.073328   -3.445587
 H      4.310974    1.356655   -2.420113
 C      6.168345   -1.511092   -1.999261
 H      5.707833   -2.118172   -2.776958
 H      7.064536   -1.070286   -2.431285
 H      6.494419   -2.168890   -1.195191
