57

 Si     0.285118   -0.408855    1.372374
 O      0.293067   -1.428010    0.113413
 C      1.231600   -2.401344   -0.229830
 C      2.590458   -1.766014   -0.182980
 H      1.185469   -3.217711    0.496460
 C      2.863446   -0.685401   -1.008294
 C      3.547288   -2.191859    0.724062
 C      4.084261   -0.039844   -0.938410
 H      2.108400   -0.346064   -1.702236
 C      4.772845   -1.546242    0.801458
 H      3.333364   -3.025620    1.383340
 C      5.043793   -0.470932   -0.030069
 H      4.294260    0.795885   -1.598865
 H      5.516689   -1.886211    1.516143
 H      6.005294    0.031607    0.026562
 C      0.880162   -2.917826   -1.602343
 C     -0.418259   -3.611738   -1.644043
 H      1.650177   -3.618649   -1.948608
 H      0.850574   -2.079608   -2.299035
 C     -1.459609   -4.206187   -1.710230
 H     -2.363873   -4.756236   -1.793403
 Cl     1.716979    0.745498    2.205296
 Cl     0.316177   -1.816249    2.876459
 O      0.146842    0.801092    0.013688
 O     -1.332976    0.016776    1.686472
 C     -1.568054    2.229151    0.279414
 C     -2.400793    1.066288   -0.016082
 C     -2.839686   -1.213015    0.444061
 C      0.642121    3.047309    0.238008
 C      0.176957    4.341918    0.511445
 C     -2.080561    3.507006    0.529619
 C     -1.208987    4.545397    0.682639
 C     -3.369757    1.086557   -1.022329
 C     -4.062662   -0.058528   -1.294705
 C     -3.818904   -1.235595   -0.560664
 H     -3.152405    3.631791    0.614465
 H     -1.575013    5.542291    0.905402
 H     -3.532838    2.004392   -1.571679
 H     -4.814309   -0.069399   -2.077905
 C     -4.540060   -2.439012   -0.765880
 C     -2.574227   -2.339805    1.231347
 N     -0.262953    2.021607    0.208157
 N     -2.166322   -0.042784    0.660083
 C      1.996220    2.797865   -0.039887
 C      1.128362    5.393025    0.571272
 C      2.443347    5.141910    0.330540
 C      2.879326    3.829345    0.005092
 H      2.289471    1.791613   -0.286570
 H      0.782544    6.394878    0.800098
 H      3.168369    5.950427    0.370880
 H      3.928380    3.651253   -0.213864
 C     -4.283439   -3.529225    0.005865
 C     -3.286139   -3.477215    1.013235
 H     -1.807126   -2.270994    1.983715
 H     -5.300304   -2.464063   -1.538627
 H     -4.843835   -4.448016   -0.144641
 H     -3.088270   -4.356633    1.620115
