57

 Si    -0.001177   -0.609247    1.843378
 O      0.200845   -1.781932    0.741989
 C      0.712417   -1.847653   -0.543142
 C      2.099575   -1.279672   -0.579806
 H      0.081211   -1.276227   -1.225643
 C      2.948908   -1.502440    0.490353
 C      2.540443   -0.529317   -1.657858
 C      4.230653   -0.980413    0.490937
 H      2.602071   -2.089062    1.328653
 C      3.825755   -0.008664   -1.667520
 H      1.880179   -0.352726   -2.499292
 C      4.673773   -0.232584   -0.592403
 H      4.885440   -1.162492    1.338012
 H      4.166005    0.573219   -2.519590
 H      5.682441    0.170464   -0.600301
 C      0.703471   -3.301110   -0.962929
 C     -0.654292   -3.813899   -1.215394
 H      1.285907   -3.434786   -1.882647
 H      1.171069   -3.891800   -0.173760
 C     -1.745168   -4.248116   -1.468056
 H     -2.692963   -4.662219   -1.706868
 Cl     1.302333    0.461708    2.955785
 Cl    -0.476352   -1.926121    3.344002
 O      0.316678    0.477948    0.438897
 O     -1.571687    0.049749    1.786187
 C     -1.158672    2.156799    0.244901
 C     -2.098315    1.110477   -0.148668
 C     -2.984035   -1.033348    0.320134
 C      1.121434    2.625976    0.621198
 C      0.837188    3.997214    0.696535
 C     -1.487522    3.516320    0.294101
 C     -0.501008    4.422311    0.554258
 C     -2.841626    1.196616   -1.329543
 C     -3.653804    0.155584   -1.677734
 C     -3.750942   -0.983374   -0.854109
 H     -2.518411    3.809237    0.142559
 H     -0.731427    5.480322    0.624636
 H     -2.739793    2.080073   -1.945896
 H     -4.234280    0.197404   -2.594092
 C     -4.609539   -2.074139   -1.140278
 C     -3.051940   -2.127355    1.190926
 N      0.081620    1.752499    0.464519
 N     -2.181632    0.035658    0.613711
 C      2.438768    2.144741    0.664837
 C      1.922110    4.891886    0.883552
 C      3.196207    4.419100    0.949000
 C      3.457879    3.028442    0.822449
 H      2.598076    1.089006    0.556701
 H      1.713994    5.953220    0.960250
 H      4.025944    5.107678    1.084751
 H      4.482443    2.669727    0.847113
 C     -4.681076   -3.129852   -0.285090
 C     -3.887936   -3.156779    0.890263
 H     -2.430114   -2.124111    2.070263
 H     -5.207353   -2.041946   -2.044352
 H     -5.346326   -3.961788   -0.500057
 H     -3.947440   -4.010207    1.560178
