57

 Si    -0.554711   -1.146148    1.131803
 O      0.751196   -2.142242    1.007532
 C      1.268660   -2.833020   -0.084021
 C      1.557555   -1.808028   -1.145283
 H      0.511618   -3.525286   -0.460594
 C      2.673729   -0.994958   -1.071699
 C      0.576837   -1.520892   -2.081104
 C      2.783981    0.125506   -1.874419
 H      3.460926   -1.223278   -0.369077
 C      0.679380   -0.404436   -2.890111
 H     -0.290784   -2.162568   -2.157714
 C      1.776068    0.435006   -2.774935
 H      3.664131    0.757417   -1.801315
 H     -0.099714   -0.191031   -3.615719
 H      1.862197    1.313727   -3.408054
 C      2.457486   -3.628537    0.388135
 C      2.054704   -4.629174    1.389443
 H      2.936834   -4.140020   -0.456062
 H      3.192125   -2.960176    0.837564
 C      1.709003   -5.442107    2.202343
 H      1.420874   -6.174353    2.918554
 Cl    -0.538306   -1.055133    3.137956
 Cl    -1.905777   -2.310576    0.198239
 O      0.338998   -0.062580    0.170347
 O     -1.667274    0.266020    1.204439
 C     -0.211707    2.103798    0.014210
 C     -1.459227    1.653535   -0.592689
 C     -3.451278    0.439193   -0.233555
 C      1.696647    1.415966    1.232577
 C      2.069502    2.751495    1.431609
 C      0.125753    3.453364    0.182058
 C      1.259679    3.766494    0.874795
 C     -1.956108    2.173703   -1.793865
 C     -3.185709    1.778244   -2.230149
 C     -3.978250    0.918405   -1.440070
 H     -0.535144    4.212620   -0.215271
 H      1.535969    4.805071    1.027866
 H     -1.337602    2.861160   -2.355867
 H     -3.578009    2.144943   -3.173135
 C     -5.298424    0.536787   -1.790463
 C     -4.220994   -0.340321    0.645313
 N      0.577911    1.166502    0.493630
 N     -2.165867    0.773464    0.102905
 C      2.418876    0.347974    1.781305
 C      3.234715    3.004753    2.198369
 C      3.943188    1.968486    2.726194
 C      3.525176    0.626667    2.521773
 H      2.058215   -0.652177    1.611106
 H      3.541404    4.032356    2.359773
 H      4.833320    2.164585    3.318134
 H      4.093224   -0.185718    2.967144
 C     -6.031954   -0.241477   -0.949131
 C     -5.490683   -0.671818    0.291248
 H     -3.777551   -0.643605    1.579746
 H     -5.709565    0.887523   -2.730421
 H     -7.045895   -0.526703   -1.216561
 H     -6.099344   -1.268401    0.965174
