57

 Si    -0.414639   -1.457934   -0.257247
 O      0.992767   -0.793246    0.162050
 C      2.013885   -1.060345    1.061020
 C      3.275741   -1.201498    0.261057
 H      1.797631   -2.002203    1.573485
 C      3.210447   -1.980216   -0.887564
 C      4.469070   -0.577899    0.587646
 C      4.313798   -2.123357   -1.708699
 H      2.284067   -2.476388   -1.136978
 C      5.582710   -0.722415   -0.229452
 H      4.547949    0.023904    1.483431
 C      5.506822   -1.488892   -1.381675
 H      4.244751   -2.734528   -2.603982
 H      6.513807   -0.231593    0.039936
 H      6.377629   -1.599915   -2.021714
 C      2.028564    0.051688    2.081510
 C      0.691318    0.256651    2.653699
 H      2.727912   -0.178441    2.892994
 H      2.353992    0.979065    1.617656
 C     -0.406468    0.417144    3.110521
 H     -1.368631    0.549987    3.540154
 Cl    -0.780545   -2.344911   -2.030795
 Cl    -0.324410   -3.158359    0.886574
 O     -1.739757   -0.921026    0.665186
 O     -0.666777    0.079036   -1.142757
 C     -2.770911    0.984433   -0.015340
 C     -1.501398    1.668052    0.217593
 C      0.752994    1.753873   -0.469564
 C     -3.856492   -1.113394   -0.181763
 C     -5.019526   -0.489198   -0.653627
 C     -3.918902    1.649243   -0.460295
 C     -5.026362    0.915856   -0.778546
 C     -1.348242    2.814948    1.001258
 C     -0.114102    3.391668    1.083396
 C      0.966335    2.880785    0.335123
 H     -3.887859    2.725295   -0.571388
 H     -5.921174    1.409662   -1.144364
 H     -2.202973    3.197082    1.544379
 H      0.042736    4.262452    1.711922
 C      2.264322    3.453767    0.339327
 C      1.754940    1.239633   -1.303222
 N     -2.779481   -0.328397    0.120189
 N     -0.471963    1.161921   -0.439260
 C     -3.775016   -2.504955   -0.020814
 C     -6.128916   -1.310145   -0.981069
 C     -6.046516   -2.660815   -0.833723
 C     -4.855966   -3.263344   -0.347307
 H     -2.852868   -2.926552    0.348169
 H     -7.034340   -0.840793   -1.349452
 H     -6.895913   -3.288967   -1.088383
 H     -4.807600   -4.343339   -0.235756
 C      3.245930    2.928838   -0.442492
 C      2.982916    1.816871   -1.286203
 H      1.513799    0.396089   -1.922882
 H      2.450896    4.316986    0.968618
 H      4.238643    3.371126   -0.438687
 H      3.771379    1.427013   -1.921890
