57

 Si    -0.656765    1.269044    1.711424
 O      0.295557    2.025412    0.648224
 C      0.292536    2.169108   -0.733061
 C      1.299590    1.217187   -1.302847
 H     -0.685522    1.911570   -1.131438
 C      2.654342    1.415542   -1.084284
 C      0.883193    0.107482   -2.019827
 C      3.586161    0.533586   -1.602608
 H      2.981166    2.274031   -0.513780
 C      1.810921   -0.784358   -2.537029
 H     -0.173117   -0.055230   -2.185343
 C      3.165224   -0.568747   -2.334882
 H      4.644574    0.710671   -1.441725
 H      1.474125   -1.642468   -3.111437
 H      3.895381   -1.257049   -2.750657
 C      0.559178    3.622763   -1.044844
 C     -0.552357    4.456424   -0.556213
 H      0.672304    3.773468   -2.125469
 H      1.482233    3.936887   -0.556831
 C     -1.477151    5.103253   -0.146287
 H     -2.284491    5.696984    0.211431
 Cl     0.130328    2.215663    3.351832
 Cl    -2.589528    1.636270    2.160954
 O     -1.170920    0.295479    0.260651
 O     -0.033165   -0.232857    2.224138
 C     -1.409126   -1.902854    0.682462
 C      0.049091   -1.933160    0.725115
 C      2.027899   -0.831473    1.405191
 C     -3.270812   -0.608700    0.028745
 C     -4.114326   -1.715330    0.196607
 C     -2.212239   -3.038386    0.848779
 C     -3.556216   -2.932517    0.643803
 C      0.785769   -2.888841    0.018818
 C      2.147640   -2.811001    0.023939
 C      2.803109   -1.775632    0.718161
 H     -1.744705   -3.965711    1.153501
 H     -4.203969   -3.790417    0.791453
 H      0.255176   -3.654317   -0.531331
 H      2.738901   -3.540254   -0.520024
 C      4.212403   -1.642062    0.760387
 C      2.616073    0.228632    2.105977
 N     -1.947824   -0.738529    0.354998
 N      0.668433   -0.977279    1.391482
 C     -3.747253    0.604166   -0.496642
 C     -5.488219   -1.560988   -0.121297
 C     -5.950493   -0.377636   -0.607839
 C     -5.064732    0.714339   -0.810793
 H     -3.047757    1.411005   -0.637275
 H     -6.152962   -2.405825    0.020329
 H     -7.002046   -0.265047   -0.857795
 H     -5.444670    1.644593   -1.224141
 C      4.781951   -0.614443    1.445985
 C      3.971857    0.334224    2.120141
 H      1.973709    0.932339    2.608888
 H      4.819596   -2.370347    0.235136
 H      5.863394   -0.513558    1.478726
 H      4.438554    1.154892    2.658422
