57

 Si    -0.708983   -1.676362   -0.526342
 O      0.889790   -1.519293   -0.371794
 C      1.834740   -1.958978    0.548104
 C      2.141258   -0.774024    1.418728
 H      1.390456   -2.743764    1.164550
 C      3.390964   -0.190799    1.521995
 C      1.076561   -0.220896    2.119378
 C      3.578104    0.934057    2.315237
 H      4.235702   -0.610538    0.993158
 C      1.253687    0.900133    2.905471
 H      0.105657   -0.683950    2.048245
 C      2.511073    1.485212    3.004392
 H      4.566645    1.377526    2.392653
 H      0.412500    1.315520    3.452160
 H      2.657953    2.363257    3.627085
 C      2.997958   -2.548313   -0.205378
 C      2.534686   -3.598102   -1.124484
 H      3.728514   -2.975048    0.492299
 H      3.498758   -1.776618   -0.786768
 C      2.129422   -4.441039   -1.876628
 H      1.787036   -5.199842   -2.539720
 Cl    -1.670045   -2.432611   -2.126357
 Cl    -1.004316   -3.254629    0.753989
 O     -1.601369   -0.682301    0.535205
 O     -0.579080   -0.174119   -1.494133
 C     -2.088436    1.414535   -0.178460
 C     -0.649108    1.660681   -0.189537
 C      1.379411    0.990283   -1.185525
 C     -3.787858   -0.221413    0.029089
 C     -4.758226    0.722333   -0.335716
 C     -3.027259    2.392859   -0.523260
 C     -4.345407    2.044193   -0.603900
 C     -0.031088    2.744911    0.436979
 C      1.312195    2.918314    0.271779
 C      2.046012    2.055037   -0.565042
 H     -2.680178    3.393118   -0.746887
 H     -5.088703    2.782910   -0.887041
 H     -0.628845    3.406366    1.050596
 H      1.822931    3.739612    0.762433
 C      3.426276    2.225959   -0.840313
 C      2.027986    0.144849   -2.096122
 N     -2.484734    0.185358    0.091239
 N      0.055533    0.814257   -0.922347
 C     -4.122190   -1.552062    0.321634
 C     -6.107814    0.293106   -0.413677
 C     -6.430642   -1.000206   -0.138063
 C     -5.425377   -1.931826    0.233373
 H     -3.331324   -2.232404    0.596739
 H     -6.868134    1.012535   -0.696717
 H     -7.464721   -1.328337   -0.200444
 H     -5.699880   -2.960984    0.449325
 C      4.058827    1.391536   -1.707049
 C      3.346172    0.345675   -2.352431
 H      1.454176   -0.636850   -2.560174
 H      3.956498    3.037917   -0.356173
 H      5.114769    1.529911   -1.923879
 H      3.861467   -0.296654   -3.061473
