57

 Si    -0.527115   -1.442438   -0.085977
 O      0.939458   -0.843721    0.212328
 C      1.976258   -1.090456    1.098795
 C      3.190127   -1.407701    0.275463
 H      1.716497   -1.954924    1.716669
 C      3.021623   -2.295843   -0.779514
 C      4.437056   -0.844163    0.491855
 C      4.076240   -2.605779   -1.618328
 H      2.052980   -2.745593   -0.941136
 C      5.502168   -1.155885   -0.343196
 H      4.595951   -0.160053    1.315015
 C      5.323782   -2.031131   -1.402836
 H      3.926617   -3.300151   -2.440088
 H      6.475825   -0.709527   -0.161069
 H      6.156301   -2.272146   -2.057910
 C      2.111989    0.117623    1.993359
 C      0.817478    0.479454    2.586019
 H      2.826900   -0.077952    2.800318
 H      2.481389    0.965215    1.422145
 C     -0.246417    0.767234    3.060260
 H     -1.178070    1.014643    3.506155
 Cl    -1.028333   -2.479151   -1.741307
 Cl    -0.508369   -3.017245    1.228389
 O     -1.769168   -0.713996    0.820623
 O     -0.707737    0.008264   -1.121419
 C     -2.691687    1.181511   -0.024008
 C     -1.368214    1.788866    0.089148
 C      0.854999    1.632633   -0.682015
 C     -3.928406   -0.835415    0.073615
 C     -5.064054   -0.178708   -0.420325
 C     -3.808150    1.880081   -0.496598
 C     -4.977339    1.202255   -0.694607
 C     -1.100933    2.997366    0.737889
 C      0.173184    3.485824    0.713151
 C      1.181646    2.819412   -0.012794
 H     -3.706416    2.933477   -0.722856
 H     -5.850248    1.720798   -1.078662
 H     -1.902564    3.498383    1.265084
 H      0.417780    4.404342    1.236994
 C      2.515611    3.291493   -0.117276
 C      1.781226    0.960040   -1.490166
 N     -2.786900   -0.105676    0.251735
 N     -0.406337    1.140807   -0.545031
 C     -3.938146   -2.204872    0.379245
 C     -6.242077   -0.943936   -0.616878
 C     -6.248847   -2.274184   -0.328430
 C     -5.083171   -2.910239    0.175220
 H     -3.032777   -2.653754    0.757533
 H     -7.127430   -0.449044   -1.000317
 H     -7.151178   -2.859900   -0.482188
 H     -5.105949   -3.973346    0.399868
 C      3.423005    2.615311   -0.872036
 C      3.046116    1.443047   -1.580126
 H      1.454634    0.076407   -2.006130
 H      2.789286    4.200425    0.407044
 H      4.443341    2.980806   -0.952315
 H      3.776567    0.931212   -2.198381
