57

 Si    -0.295501   -1.249105   -0.527644
 O      1.049323   -0.498239   -0.067930
 C      2.094664   -0.367610    0.824695
 C      3.329353   -1.018474    0.279511
 H      2.286014    0.706569    0.903729
 C      4.580421   -0.462739    0.516644
 C      3.228484   -2.168276   -0.485324
 C      5.719610   -1.054409   -0.007047
 H      4.669099    0.436503    1.116631
 C      4.362729   -2.760367   -1.016098
 H      2.257712   -2.602853   -0.662794
 C      5.612349   -2.204444   -0.777397
 H      6.694204   -0.614764    0.185738
 H      4.268533   -3.660853   -1.615974
 H      6.503564   -2.668212   -1.190736
 C      1.714272   -0.858721    2.201246
 C      0.521936   -0.154887    2.702874
 H      2.545017   -0.679826    2.894119
 H      1.509928   -1.927247    2.177342
 C     -0.445864    0.425839    3.112021
 H     -1.295999    0.915122    3.517682
 Cl    -0.591373   -2.047748   -2.356088
 Cl    -0.067713   -3.022354    0.481522
 O     -1.617440   -0.876814    0.476127
 O     -0.712110    0.306779   -1.313544
 C     -2.782970    1.016270    0.009567
 C     -1.537308    1.753565    0.205297
 C      0.653693    2.016791   -0.628853
 C     -3.767479   -1.120661   -0.257137
 C     -4.991185   -0.529877   -0.600726
 C     -3.992420    1.646389   -0.306034
 C     -5.079932    0.878199   -0.609453
 C     -1.385162    2.851115    1.058256
 C     -0.177741    3.485453    1.101273
 C      0.871614    3.088373    0.245755
 H     -4.024805    2.727802   -0.332717
 H     -6.022248    1.347085   -0.874981
 H     -2.217562    3.149043    1.682588
 H     -0.019649    4.316261    1.781506
 C      2.138897    3.725718    0.207472
 C      1.618525    1.613224   -1.562930
 N     -2.714850   -0.301444    0.041330
 N     -0.533950    1.355710   -0.556756
 C     -3.600686   -2.513519   -0.220003
 C     -6.075625   -1.385549   -0.922317
 C     -5.911864   -2.736649   -0.893570
 C     -4.659793   -3.305477   -0.539049
 H     -2.634506   -2.908974    0.053550
 H     -7.027840   -0.942047   -1.191414
 H     -6.742800   -3.391027   -1.143089
 H     -4.546261   -4.386245   -0.522895
 C      3.086300    3.310727   -0.676104
 C      2.817501    2.249543   -1.582462
 H      1.375589    0.799338   -2.222640
 H      2.329031    4.548898    0.887326
 H      4.055219    3.802305   -0.704565
 H      3.579056    1.946792   -2.295533
