57

 Si     0.901717   -1.038056    2.259417
 O      0.688639    0.298028   -2.212684
 C     -0.015873   -0.628211   -1.905340
 C     -1.488350   -0.527390   -1.698248
 H      0.387864   -1.631799   -1.719160
 C     -2.232818    0.376390   -2.446807
 C     -2.116049   -1.324920   -0.751120
 C     -3.598688    0.476647   -2.255780
 H     -1.732037    0.986527   -3.188737
 C     -3.480126   -1.208566   -0.539710
 H     -1.532386   -2.026626   -0.170057
 C     -4.222020   -0.314198   -1.297334
 H     -4.181719    1.171310   -2.853284
 H     -3.966593   -1.825719    0.209320
 H     -5.294564   -0.234214   -1.144118
 C      0.997075   -4.107022   -0.259201
 C      0.533693   -3.346084    0.694385
 H      0.643970   -4.003850   -1.281798
 H      1.727659   -4.881256   -0.035947
 C      0.078351   -2.590171    1.662535
 H     -0.783220   -2.961505    2.216007
 Cl     0.222341   -1.199975    4.232544
 Cl     2.896355   -1.028743    2.669797
 O      1.152318   -0.663558    0.484228
 O      0.273171    0.573455    2.249120
 C      1.610362    1.523090    0.098045
 C      0.188544    1.767227    0.306876
 C     -1.781638    1.237821    1.502667
 C      3.238317   -0.131206   -0.310772
 C      4.164737    0.849537   -0.682300
 C      2.505430    2.537849   -0.259846
 C      3.775923    2.203623   -0.620237
 C     -0.535593    2.575595   -0.577684
 C     -1.879402    2.710793   -0.409407
 C     -2.539876    2.035044    0.637777
 H      2.167134    3.564874   -0.228080
 H      4.492533    2.974428   -0.884395
 H     -0.008680    3.037388   -1.399814
 H     -2.456634    3.326036   -1.090521
 C     -3.935635    2.122071    0.860310
 C     -2.372819    0.541611    2.567698
 N      2.003666    0.261987    0.123962
 N     -0.427758    1.154061    1.299705
 C      3.541249   -1.498498   -0.402353
 C      5.446696    0.426943   -1.118274
 C      5.741587   -0.898604   -1.194552
 C      4.771317   -1.873465   -0.840553
 H      2.781643   -2.208461   -0.124601
 H      6.176122    1.179906   -1.394918
 H      6.722203   -1.220240   -1.534638
 H      5.016886   -2.928798   -0.921441
 C     -4.509958    1.440761    1.888839
 C     -3.717716    0.640177    2.750625
 H     -1.737610   -0.042669    3.216471
 H     -4.530186    2.737673    0.195389
 H     -5.581195    1.509060    2.057485
 H     -4.188358    0.103889    3.570510
