57

 Si    -0.340930   -1.280960   -0.411761
 O      1.036512   -0.522640   -0.078305
 C      2.126524   -0.342026    0.749783
 C      3.322614   -1.057963    0.200145
 H      2.338144    0.731117    0.733377
 C      4.592539   -0.510556    0.334289
 C      3.166404   -2.261488   -0.466327
 C      5.695477   -1.163785   -0.193734
 H      4.724460    0.430722    0.856897
 C      4.264124   -2.915632   -1.001139
 H      2.181365   -2.689258   -0.563425
 C      5.532631   -2.367944   -0.865373
 H      6.685204   -0.729944   -0.081889
 H      4.126575   -3.857934   -1.523394
 H      6.395271   -2.880200   -1.282076
 C      1.807033   -0.715209    2.177920
 C      0.651996    0.049185    2.678214
 H      2.673711   -0.497716    2.813373
 H      1.585364   -1.778121    2.249418
 C     -0.285376    0.678851    3.085805
 H     -1.107015    1.214794    3.491220
 Cl    -0.738987   -2.215974   -2.154129
 Cl    -0.091947   -2.972913    0.724039
 O     -1.605858   -0.804548    0.621136
 O     -0.771185    0.215680   -1.298647
 C     -2.762928    1.068210    0.060892
 C     -1.497666    1.794072    0.137251
 C      0.653637    1.947173   -0.818799
 C     -3.793110   -1.063297    0.013896
 C     -5.022755   -0.477621   -0.317009
 C     -3.976426    1.695075   -0.245523
 C     -5.089597    0.926831   -0.433982
 C     -1.286380    2.952394    0.891546
 C     -0.068250    3.563957    0.826340
 C      0.931382    3.079840   -0.043790
 H     -3.993109    2.771412   -0.357022
 H     -6.036378    1.391751   -0.690450
 H     -2.082222    3.315182    1.529086
 H      0.136288    4.442612    1.429734
 C      2.205250    3.686929   -0.193220
 C      1.564781    1.452182   -1.762725
 N     -2.714148   -0.243921    0.194842
 N     -0.539397    1.317451   -0.637505
 C     -3.646777   -2.451818    0.154589
 C     -6.135036   -1.334587   -0.517040
 C     -5.991451   -2.682137   -0.388043
 C     -4.732685   -3.245589   -0.049063
 H     -2.674769   -2.843378    0.412683
 H     -7.092176   -0.895169   -0.775144
 H     -6.843868   -3.337707   -0.544692
 H     -4.635538   -4.323676    0.048415
 C      3.101329    3.184864   -1.085142
 C      2.771373    2.061100   -1.890162
 H      1.276864    0.593730   -2.343082
 H      2.441757    4.557244    0.408936
 H      4.075396    3.653404   -1.198849
 H      3.491962    1.687948   -2.612385
