57

 Si     0.895209   -1.390346    0.924278
 O     -0.695013   -1.211904    1.133058
 C     -1.823611   -1.911727    0.722949
 C     -2.398159   -1.128476   -0.422734
 H     -1.517566   -2.895044    0.358460
 C     -3.658372   -0.559031   -0.418004
 C     -1.575764   -0.942212   -1.527052
 C     -4.094863    0.190564   -1.502992
 H     -4.318796   -0.700001    0.426554
 C     -2.000367   -0.193623   -2.606540
 H     -0.598838   -1.397994   -1.535482
 C     -3.266911    0.379936   -2.596535
 H     -5.089879    0.626014   -1.488583
 H     -1.347545   -0.063254   -3.464345
 H     -3.608788    0.964914   -3.445767
 C     -2.725667   -2.106408    1.913104
 C     -1.993183   -2.752973    3.011736
 H     -3.589669   -2.724540    1.641210
 H     -3.096824   -1.145662    2.264741
 C     -1.369139   -3.268448    3.897951
 H     -0.832351   -3.736557    4.688787
 Cl     2.267488   -1.538079    2.390846
 Cl     0.923132   -3.349719    0.310054
 O      1.440138   -0.924190   -0.624090
 O      0.950740    0.371416    1.247114
 C      1.999344    1.254824   -0.909868
 C      0.601346    1.568832   -0.628330
 C     -1.071663    1.443191    1.027444
 C      3.660453   -0.432791   -0.903640
 C      4.648611    0.521459   -1.183623
 C      2.950485    2.235388   -1.211716
 C      4.259615    1.868063   -1.341535
 C     -0.204667    2.369124   -1.440639
 C     -1.467041    2.669210   -1.018572
 C     -1.922334    2.230239    0.239976
 H      2.627710    3.264100   -1.304352
 H      5.017083    2.615144   -1.557084
 H      0.185399    2.713463   -2.389672
 H     -2.123061    3.271243   -1.637696
 C     -3.192653    2.570573    0.769666
 C     -1.427050    1.042840    2.322862
 N      2.368091   -0.005600   -0.782949
 N      0.147158    1.105314    0.524422
 C      3.968010   -1.792130   -0.743224
 C      5.990958    0.076813   -1.293904
 C      6.289953   -1.240959   -1.130114
 C      5.265868   -2.184525   -0.851658
 H      3.164332   -2.479112   -0.528355
 H      6.765357    0.804932   -1.508190
 H      7.319038   -1.580146   -1.212676
 H      5.521988   -3.232859   -0.723015
 C     -3.544156    2.163066    2.017840
 C     -2.643602    1.400126    2.808545
 H     -0.718889    0.463102    2.886848
 H     -3.865232    3.167756    0.164843
 H     -4.514651    2.432815    2.425935
 H     -2.931206    1.103848    3.813717
