63

 Si     0.564796   -1.871337    0.858687
 O     -1.001882   -1.557897    1.092121
 C     -2.188677   -2.093300    0.604878
 C     -2.637371   -1.177212   -0.497828
 H     -1.983841   -3.078461    0.180244
 C     -3.818818   -0.458387   -0.476086
 C     -1.776472   -1.029665   -1.578060
 C     -4.137422    0.402204   -1.518713
 H     -4.509077   -0.565531    0.349237
 C     -2.084608   -0.173980   -2.616659
 H     -0.862722   -1.600910   -1.601339
 C     -3.270462    0.550943   -2.588400
 H     -5.071768    0.955525   -1.491426
 H     -1.403521   -0.078810   -3.456551
 H     -3.522208    1.220921   -3.405772
 C     -3.145158   -2.264284    1.755420
 C     -2.519071   -3.046709    2.830928
 H     -4.057161   -2.772919    1.420440
 H     -3.430681   -1.294467    2.156715
 C     -1.979711   -3.672445    3.701652
 H     -1.520999   -4.238266    4.477637
 Cl     1.918868   -2.374850    2.264639
 Cl     0.386931   -3.724883   -0.014765
 O      1.158948   -1.254262   -0.617816
 O      0.802065   -0.196497    1.451132
 C      1.983356    0.846371   -0.492324
 C      0.588770    1.229089   -0.273535
 C     -1.111821    1.070540    1.354989
 C      3.434812   -1.011741   -0.736695
 C      4.540180   -0.153142   -0.732704
 C      3.056495    1.752878   -0.448718
 C      4.316875    1.227836   -0.574214
 C     -0.161836    2.099829   -1.070501
 C     -1.406778    2.443235   -0.604023
 C     -1.892427    1.976412    0.626662
 H      5.176948    1.886034   -0.533674
 H     -2.030230    3.108330   -1.188814
 N      2.200715   -0.449785   -0.603253
 N      0.078382    0.697013    0.827735
 C      3.573084   -2.403575   -0.860999
 H      2.682260   -3.011953   -0.844276
 C      5.830788   -0.729976   -0.861544
 H      6.696738   -0.077629   -0.859664
 C      4.822747   -2.924077   -0.979952
 C      5.965468   -2.078273   -0.982102
 C     -1.511588    0.585891    2.610573
 H     -0.856854   -0.096784    3.122835
 C     -3.139768    2.371983    1.180216
 H     -3.760302    3.064235    0.623138
 C     -2.698712    0.998087    3.119856
 C     -3.529364    1.895854    2.390374
 H      4.950702   -3.999131   -1.073242
 H      6.953691   -2.519710   -1.079551
 H     -3.021471    0.642261    4.094508
 H     -4.478676    2.207386    2.818195
 C      2.817657    3.218031   -0.204392
 H      2.331726    3.687269   -1.058438
 H      2.184954    3.363422    0.670996
 H      3.765020    3.724097   -0.030714
 C      0.346605    2.593139   -2.398660
 H     -0.411674    2.422140   -3.163271
 H      0.551070    3.665147   -2.367295
 H      1.252476    2.074747   -2.697838
