63

 Si     0.007553   -1.249983   -0.530921
 O     -1.493400   -1.552340    0.054493
 C     -2.679913   -2.153234   -0.316974
 C     -3.785521   -1.481740    0.447328
 H     -2.848845   -2.011835   -1.388138
 C     -3.575190   -1.147845    1.776722
 C     -4.995752   -1.167437   -0.152759
 C     -4.556873   -0.494256    2.501675
 H     -2.627550   -1.393234    2.234740
 C     -5.986757   -0.517024    0.570601
 H     -5.168535   -1.429077   -1.191582
 C     -5.768177   -0.176436    1.897242
 H     -4.379565   -0.234372    3.541327
 H     -6.932557   -0.275447    0.093249
 H     -6.542287    0.334154    2.463376
 C     -2.634493   -3.639262   -0.025893
 C     -1.789610   -4.375818   -0.981472
 H     -3.644758   -4.061268   -0.078609
 H     -2.256135   -3.785440    0.986499
 C     -1.129834   -4.976018   -1.785575
 H     -0.548939   -5.516911   -2.492880
 Cl    -0.485638   -1.200816   -2.497573
 Cl     0.929881   -2.782496    0.399016
 O      0.014835    0.130131    0.491943
 O      1.558170   -0.558951   -1.130129
 C      1.383997    1.789651   -0.178322
 C      2.445517    0.920845    0.328735
 C      3.557425   -1.111668   -0.130678
 C     -0.953684    1.939052   -0.526706
 C     -0.787637    3.184665   -1.142936
 C      1.617214    3.017368   -0.823463
 C      0.518921    3.690446   -1.292088
 C      3.346769    1.257621    1.347958
 C      4.356534    0.363210    1.602709
 C      4.513606   -0.811914    0.847873
 H      0.649131    4.635060   -1.807291
 H      5.067761    0.571822    2.393659
 N      0.164272    1.297298   -0.084808
 N      2.514738   -0.250630   -0.287670
 C     -2.213598    1.348003   -0.362058
 H     -2.259780    0.380522    0.101703
 C     -1.950766    3.852783   -1.605966
 H     -1.841922    4.817684   -2.088462
 C     -3.308019    2.013458   -0.814816
 C     -3.175542    3.281859   -1.443124
 C      3.670160   -2.246183   -0.955063
 H      2.917032   -2.403086   -1.710553
 C      5.591871   -1.720658    1.025576
 H      6.331805   -1.508170    1.788855
 C      4.722008   -3.084039   -0.772575
 C      5.689818   -2.824140    0.238783
 H     -4.291269    1.569968   -0.694662
 H     -4.065396    3.794948   -1.798238
 H      4.831572   -3.960098   -1.405768
 H      6.519131   -3.514125    0.369856
 C      3.020715    3.514751   -1.040498
 H      3.496195    3.783984   -0.098764
 H      3.628499    2.748849   -1.522752
 H      3.007941    4.394692   -1.680200
 C      3.179090    2.510241    2.167893
 H      3.154503    2.250551    3.227692
 H      4.015281    3.194734    2.013117
 H      2.255994    3.027598    1.927349
