63

 Si     0.551975   -1.553151    1.641411
 O     -0.699973   -1.939979    0.683219
 C     -0.974663   -1.982766   -0.669265
 C     -2.339785   -1.407378   -0.898132
 H     -0.249893   -1.402005   -1.232108
 C     -3.363912   -1.737980   -0.025528
 C     -2.600310   -0.579183   -1.978608
 C     -4.642300   -1.250883   -0.230231
 H     -3.146830   -2.380849    0.815883
 C     -3.880890   -0.086433   -2.188422
 H     -1.803842   -0.325682   -2.669641
 C     -4.904138   -0.424217   -1.316415
 H     -5.439384   -1.520143    0.455966
 H     -4.080396    0.556438   -3.041352
 H     -5.908576   -0.045099   -1.482234
 C     -0.897405   -3.421210   -1.129686
 C      0.442680   -3.988173   -0.908439
 H     -1.145850   -3.501062   -2.194625
 H     -1.620881   -4.014115   -0.567509
 C      1.531812   -4.454009   -0.712579
 H      2.482239   -4.896275   -0.535022
 Cl    -0.371461   -2.338976    3.301330
 Cl     2.382754   -2.271812    2.121294
 O      1.240710   -0.893518    0.105170
 O      0.376423    0.073143    2.129995
 C      1.784357    1.260664    0.337742
 C      0.331890    1.436584    0.331288
 C     -1.674607    0.903743    1.465984
 C      3.459360   -0.330828   -0.143700
 C      4.440048    0.659726   -0.002359
 C      2.718592    2.289280    0.524477
 C      4.041545    1.954400    0.375971
 C     -0.345175    2.186407   -0.642898
 C     -1.703637    2.296971   -0.504359
 C     -2.393421    1.697761    0.564457
 H      4.805134    2.707928    0.530732
 H     -2.273092    2.864428   -1.230583
 N      2.169302    0.013516    0.118520
 N     -0.329132    0.794944    1.275090
 C      3.773288   -1.633008   -0.572249
 H      2.965685   -2.336856   -0.696548
 C      5.791221    0.295584   -0.251033
 H      6.564097    1.046138   -0.129592
 C      5.071011   -1.941597   -0.822977
 C      6.095334   -0.968349   -0.646725
 C     -2.298340    0.274053    2.550730
 H     -1.698621   -0.335915    3.205289
 C     -3.784581    1.858939    0.777692
 H     -4.349359    2.472102    0.085959
 C     -3.633029    0.453425    2.731712
 C     -4.385841    1.258238    1.838249
 H      5.334008   -2.938075   -1.166779
 H      7.128214   -1.242663   -0.844163
 H     -4.128004   -0.022381    3.573868
 H     -5.450968    1.389497    2.006611
 C      2.289271    3.678563    0.915699
 H      2.386381    4.370122    0.076202
 H      1.259917    3.696213    1.261084
 H      2.925312    4.044930    1.722223
 C      0.403109    2.792334   -1.799206
 H     -0.299384    3.185135   -2.531316
 H      1.044759    3.608744   -1.470888
 H      1.027253    2.044621   -2.288679
