63

 Si    -0.551183    1.731525    1.358707
 O      0.494878    2.301188    0.275268
 C      1.860211    2.442567    0.160499
 C      2.401943    1.313614   -0.676509
 H      2.321666    2.424440    1.151889
 C      1.560325    0.662970   -1.561286
 C      3.739716    0.951485   -0.616051
 C      2.042444   -0.346506   -2.376763
 H      0.524392    0.953308   -1.598253
 C      4.228584   -0.056993   -1.431391
 H      4.405484    1.462483    0.070484
 C      3.380687   -0.709610   -2.314439
 H      1.373531   -0.844115   -3.071999
 H      5.278224   -0.331177   -1.379273
 H      3.765318   -1.495307   -2.958533
 C      2.141978    3.778993   -0.490923
 C      1.636737    4.894878    0.323752
 H      3.219289    3.910351   -0.646573
 H      1.654760    3.800531   -1.467882
 C      1.219623    5.792921    1.002368
 H      0.860384    6.597866    1.598194
 Cl     0.335427    2.479508    3.061944
 Cl    -2.369942    2.538082    1.694374
 O     -1.174013    0.905475   -0.147022
 O     -0.373526    0.131249    1.941453
 C     -1.922480   -1.163295    0.302478
 C     -0.496507   -1.484129    0.358363
 C      1.565974   -0.975897    1.402124
 C     -3.417851    0.498874   -0.453004
 C     -4.493743   -0.375567   -0.252808
 C     -2.960535   -2.069016    0.567831
 C     -4.237684   -1.640854    0.304262
 C      0.096104   -2.454681   -0.467666
 C      1.435719   -2.680360   -0.298895
 C      2.194257   -1.976865    0.654006
 H     -5.075011   -2.297632    0.510304
 H      1.937311   -3.418363   -0.912733
 N     -2.177202    0.077917   -0.083558
 N      0.233652   -0.763895    1.187545
 C     -3.590159    1.764835   -1.042983
 H     -2.716215    2.377102   -1.197950
 C     -5.791901    0.073250   -0.618843
 H     -6.636471   -0.586565   -0.454989
 C     -4.839941    2.154929   -1.400123
 C     -5.958001    1.302290   -1.173518
 C      2.260970   -0.230230    2.364873
 H      1.723817    0.525892    2.914883
 C      3.569946   -2.222355    0.887909
 H      4.066354   -2.992986    0.310074
 C      3.579134   -0.492079    2.568565
 C      4.243225   -1.500050    1.822732
 H     -4.991816    3.124365   -1.866562
 H     -6.950368    1.640702   -1.459462
 H      4.129524    0.075283    3.314448
 H      5.297301   -1.691232    2.004129
 C     -2.692481   -3.418762    1.180325
 H     -3.045267   -4.221177    0.530003
 H     -1.636831   -3.569066    1.379718
 H     -3.229044   -3.499383    2.127937
 C     -0.711339   -3.160407   -1.522952
 H     -0.055286   -3.755785   -2.154331
 H     -1.451690   -3.824812   -1.080904
 H     -1.232396   -2.439722   -2.153260
