63

 Si     0.154932   -1.547960   -0.406734
 O      1.418225   -0.644838    0.008700
 C      2.455101   -0.363651    0.876064
 C      3.740317   -0.914884    0.338309
 H      2.535786    0.726531    0.898225
 C      4.930260   -0.217091    0.500599
 C      3.743603   -2.117828   -0.347703
 C      6.113064   -0.720585   -0.019139
 H      4.937386    0.724329    1.039049
 C      4.920984   -2.622689   -0.874119
 H      2.820091   -2.662063   -0.466014
 C      6.110015   -1.924457   -0.710310
 H      7.039748   -0.169456    0.114346
 H      4.908750   -3.566193   -1.411939
 H      7.035173   -2.319437   -1.120521
 C      2.151739   -0.818702    2.283713
 C      0.883758   -0.244894    2.763329
 H      2.960662   -0.496471    2.950329
 H      2.084876   -1.903959    2.325853
 C     -0.151701    0.222616    3.150619
 H     -1.062659    0.612937    3.528924
 Cl    -0.070971   -2.535802   -2.153160
 Cl     0.541608   -3.203841    0.747675
 O     -1.215052   -1.213432    0.546612
 O     -0.362105   -0.111671   -1.349746
 C     -2.536493    0.444362   -0.245201
 C     -1.395105    1.310308    0.052758
 C      0.795908    1.759080   -0.706490
 C     -3.243213   -1.817009   -0.323456
 C     -4.450216   -1.424271   -0.912909
 C     -3.716105    0.893679   -0.864223
 C     -4.652175   -0.056695   -1.180583
 C     -1.375481    2.385946    0.949262
 C     -0.216438    3.120456    1.005077
 C      0.877174    2.851118    0.164839
 H     -5.571905    0.240580   -1.670765
 H     -0.139819    3.943146    1.706885
 N     -2.338819   -0.841749   -0.026694
 N     -0.322407    0.996440   -0.657077
 C     -2.949127   -3.163108   -0.051397
 H     -1.995997   -3.401068    0.395251
 C     -5.392855   -2.435661   -1.234425
 H     -6.332482   -2.147384   -1.692085
 C     -3.871740   -4.107116   -0.374948
 C     -5.109062   -3.739926   -0.971278
 C      1.829989    1.437104   -1.600450
 H      1.691866    0.591529   -2.251342
 C      2.076974    3.613973    0.156990
 H      2.163363    4.457197    0.833210
 C      2.956056    2.192077   -1.592755
 C      3.085381    3.288810   -0.693398
 H     -3.661667   -5.154658   -0.176505
 H     -5.830357   -4.514099   -1.219031
 H      3.768512    1.960696   -2.275627
 H      3.999641    3.876503   -0.701352
 C     -3.893005    2.344371   -1.221481
 H     -3.991249    2.962053   -0.330393
 H     -3.039340    2.705523   -1.795111
 H     -4.789700    2.471147   -1.824423
 C     -2.544111    2.684425    1.850656
 H     -2.188437    2.864195    2.865485
 H     -3.071600    3.582591    1.522826
 H     -3.249548    1.858927    1.877199
