63

 Si     0.711367   -1.601692    1.440618
 O     -0.318378   -2.309450    0.425101
 C     -1.672627   -2.554283    0.362196
 C     -2.317573   -1.520450   -0.522963
 H     -2.106060   -2.508039    1.365226
 C     -1.549655   -0.866945   -1.470452
 C     -3.675998   -1.251060   -0.441949
 C     -2.126171    0.052536   -2.329908
 H     -0.496669   -1.084504   -1.522372
 C     -4.259042   -0.332686   -1.300675
 H     -4.283835   -1.764862    0.294418
 C     -3.485288    0.322124   -2.247859
 H     -1.514217    0.553091   -3.073795
 H     -5.323986   -0.130721   -1.231804
 H     -3.943428    1.037240   -2.925234
 C     -1.873718   -3.945118   -0.198944
 C     -1.267211   -4.969641    0.665142
 H     -2.942421   -4.161921   -0.312881
 H     -1.412431   -3.992614   -1.187500
 C     -0.767691   -5.791961    1.382949
 H     -0.334852   -6.530745    2.014485
 Cl    -0.073475   -2.303507    3.212072
 Cl     2.591527   -2.257139    1.766601
 O      1.232976   -0.826998   -0.129643
 O      0.433340    0.014962    1.932589
 C      1.840155    1.313388    0.172919
 C      0.396476    1.534300    0.252827
 C     -1.595074    0.946595    1.388386
 C      3.433111   -0.281702   -0.525488
 C      4.447264    0.677593   -0.409164
 C      2.815826    2.305437    0.352868
 C      4.113777    1.953496    0.078546
 C     -0.286891    2.406518   -0.611658
 C     -1.634577    2.546375   -0.415655
 C     -2.314124    1.852177    0.601366
 H      4.905975    2.679716    0.219892
 H     -2.204609    3.206598   -1.057680
 N      2.174881    0.071930   -0.144988
 N     -0.257125    0.816742    1.145903
 C      3.681567   -1.565065   -1.046498
 H      2.850540   -2.245656   -1.140800
 C      5.764741    0.300934   -0.787054
 H      6.563050    1.027789   -0.687618
 C      4.946841   -1.886088   -1.417822
 C      6.005414   -0.944290   -1.274346
 C     -2.208426    0.214679    2.415126
 H     -1.603685   -0.466867    2.991792
 C     -3.697072    2.014666    0.863583
 H     -4.263258    2.710688    0.255982
 C     -3.535968    0.395406    2.644158
 C     -4.290899    1.306478    1.860893
 H      5.156364   -2.868122   -1.832723
 H      7.011968   -1.227503   -1.570510
 H     -4.023497   -0.161691    3.439854
 H     -5.350756    1.433797    2.063424
 C      2.465617    3.668050    0.890882
 H      2.743497    4.451679    0.183765
 H      1.406884    3.755321    1.110399
 H      3.017581    3.845100    1.816240
 C      0.439197    3.101627   -1.731193
 H     -0.274585    3.609757   -2.376011
 H      1.140986    3.842218   -1.351666
 H      0.994350    2.382311   -2.333346
