63

 Si    -0.058510   -1.771125    0.020955
 O      1.343965   -1.004751    0.234859
 C      2.431153   -1.102213    1.089662
 C      3.648417   -1.279551    0.230271
 H      2.302312   -1.980746    1.728146
 C      3.558086   -2.195651   -0.810087
 C      4.823845   -0.566812    0.402901
 C      4.617129   -2.386198   -1.678616
 H      2.646192   -2.760109   -0.938647
 C      5.893531   -0.757890   -0.461878
 H      4.921977    0.143409    1.213282
 C      5.791199   -1.661595   -1.507697
 H      4.528475   -3.104020   -2.488992
 H      6.810518   -0.194088   -0.314680
 H      6.626894   -1.808142   -2.186254
 C      2.442575    0.128713    1.963015
 C      1.134058    0.332283    2.598614
 H      3.204697    0.040540    2.745168
 H      2.679699    1.006159    1.367516
 C      0.058929    0.484064    3.108868
 H     -0.884438    0.609820    3.579538
 Cl    -0.506566   -2.964718   -1.543158
 Cl     0.176446   -3.252072    1.424583
 O     -1.349453   -1.125162    0.924142
 O     -0.409088   -0.423863   -1.110567
 C     -2.497518    0.523814   -0.116252
 C     -1.267358    1.297264    0.051656
 C      0.953876    1.386380   -0.743726
 C     -3.448336   -1.629733    0.159479
 C     -4.614400   -1.201911   -0.485508
 C     -3.630490    0.999916   -0.798540
 C     -4.669675    0.121081   -0.964233
 C     -1.131371    2.493436    0.765038
 C      0.093427    3.111931    0.702950
 C      1.146108    2.600339   -0.072624
 H     -5.559122    0.438365   -1.496048
 H      0.256242    4.028599    1.258338
 N     -2.437918   -0.726393    0.300561
 N     -0.237379    0.761660   -0.586628
 C     -3.301699   -2.939907    0.643287
 H     -2.373254   -3.209910    1.122144
 C     -5.668388   -2.139418   -0.644115
 H     -6.577524   -1.823551   -1.143253
 C     -4.328583   -3.813576    0.472850
 C     -5.526712   -3.409264   -0.177014
 C      1.942815    0.824877   -1.566069
 H      1.716367   -0.095500   -2.072435
 C      2.412268    3.233813   -0.203141
 H      2.584377    4.167652    0.320353
 C      3.134297    1.460180   -1.680701
 C      3.376901    2.674868   -0.979209
 H     -4.233260   -4.833051    0.836744
 H     -6.333057   -4.127284   -0.300391
 H      3.911857    1.041651   -2.311393
 H      4.342731    3.162636   -1.081190
 C     -3.654810    2.390723   -1.371992
 H     -3.697695    3.142151   -0.584785
 H     -2.763419    2.575156   -1.971297
 H     -4.528134    2.514129   -2.009065
 C     -2.248261    3.038867    1.614799
 H     -1.878030    3.230608    2.622963
 H     -2.620899    3.983114    1.212594
 H     -3.076014    2.340003    1.684911
