63

 Si     0.166237   -1.078710    1.642139
 O      1.787376   -1.367628    1.721218
 C      2.628808   -2.057822    0.856934
 C      2.513325   -1.394556   -0.487420
 H      2.283083   -3.090518    0.768502
 C      3.153576   -0.198122   -0.755375
 C      1.591628   -1.883520   -1.399167
 C      2.846513    0.527301   -1.891906
 H      3.894464    0.182391   -0.068380
 C      1.280989   -1.167658   -2.540916
 H      1.097674   -2.826130   -1.204141
 C      1.898391    0.049150   -2.783908
 H      3.356700    1.465993   -2.087570
 H      0.559494   -1.566585   -3.247250
 H      1.665448    0.612296   -3.682975
 C      4.011489   -2.063771    1.455334
 C      4.022325   -2.774834    2.743808
 H      4.722454   -2.547525    0.773805
 H      4.347075   -1.039571    1.618763
 C      4.015485   -3.359998    3.792005
 H      4.031070   -3.881372    4.719349
 Cl     0.023192   -0.373236    3.519717
 Cl    -0.430812   -2.954695    1.218254
 O      0.527795   -0.047018    0.332926
 O     -1.484442   -0.401220    1.409980
 C     -0.978410    1.512691   -0.225387
 C     -1.740095    0.364242   -0.711939
 C     -2.958324   -1.514610    0.037161
 C      0.973179    2.086205    0.991617
 C      0.605870    3.436628    0.952505
 C     -1.426391    2.843525   -0.249389
 C     -0.606355    3.781535    0.328015
 C     -2.158480    0.183438   -2.039676
 C     -2.979345   -0.884579   -2.292257
 C     -3.438652   -1.724594   -1.260593
 H     -0.912079    4.821639    0.335888
 H     -3.310212   -1.080232   -3.305451
 N      0.155237    1.196953    0.370224
 N     -2.046331   -0.518621    0.229293
 C      2.120052    1.641929    1.667034
 H      2.308227    0.583398    1.703603
 C      1.460865    4.374734    1.589701
 H      1.195851    5.425790    1.562736
 C      2.909966    2.563892    2.275555
 C      2.583850    3.948070    2.226840
 C     -3.413371   -2.276920    1.127829
 H     -3.031740   -2.041653    2.108498
 C     -4.367383   -2.779592   -1.464440
 H     -4.734884   -2.963991   -2.467556
 C     -4.319734   -3.262650    0.904032
 C     -4.792648   -3.526939   -0.411455
 H      3.797675    2.242261    2.813355
 H      3.236522    4.665230    2.717640
 H     -4.692146   -3.853296    1.736370
 H     -5.510722   -4.327603   -0.567392
 C     -2.764380    3.224821   -0.825877
 H     -2.654665    3.627145   -1.834752
 H     -3.439881    2.375634   -0.863588
 H     -3.221647    3.997856   -0.208375
 C     -1.678917    1.101837   -3.130289
 H     -1.699315    0.580283   -4.085621
 H     -2.319587    1.980170   -3.215958
 H     -0.660935    1.432735   -2.941627
