63

 Si    -0.079600   -0.946320    1.922041
 O     -0.682083   -1.991060    0.836216
 C     -0.440771   -2.291056   -0.492720
 C      1.023969   -2.514774   -0.722197
 H     -0.776977   -1.468128   -1.126415
 C      1.754893   -3.207024    0.228040
 C      1.656719   -2.041591   -1.859621
 C      3.109151   -3.427766    0.049832
 H      1.257564   -3.575722    1.113557
 C      3.012882   -2.262792   -2.047792
 H      1.088998   -1.501941   -2.608826
 C      3.742246   -2.957164   -1.093591
 H      3.669655   -3.972223    0.804034
 H      3.500919   -1.892979   -2.945273
 H      4.803301   -3.136020   -1.242000
 C     -1.230998   -3.535339   -0.832596
 C     -2.688018   -3.322275   -0.828923
 H     -0.949681   -3.900803   -1.827949
 H     -0.984865   -4.309030   -0.103878
 C     -3.881446   -3.194692   -0.867825
 H     -4.938856   -3.114684   -0.915625
 Cl     1.694685   -0.810759    2.881086
 Cl    -1.049438   -1.847882    3.492280
 O      0.663353   -0.186840    0.465333
 O     -1.027935    0.470345    2.012703
 C      0.285038    2.014535    0.419366
 C     -1.058089    1.577943    0.041861
 C     -2.918297    0.271764    0.703726
 C      2.493045    1.204368    0.600866
 C      2.958204    2.515374    0.772130
 C      0.680821    3.343245    0.622304
 C      2.021132    3.562198    0.824966
 C     -1.648918    1.907838   -1.188185
 C     -2.906579    1.416187   -1.422472
 C     -3.583198    0.622326   -0.478619
 H      2.377495    4.569774    1.005722
 H     -3.405518    1.641679   -2.357893
 N      1.149315    1.015426    0.511502
 N     -1.659206    0.763189    0.887788
 C      3.371921    0.113184    0.494198
 H      2.953381   -0.861425    0.327994
 C      4.361469    2.711583    0.885915
 H      4.736229    3.718195    1.033217
 C      4.706590    0.336694    0.585258
 C      5.208190    1.652601    0.796374
 C     -3.528315   -0.523228    1.683227
 H     -2.962251   -0.780658    2.562688
 C     -4.911840    0.161092   -0.660850
 H     -5.436281    0.429402   -1.570969
 C     -4.804313   -0.944305    1.482300
 C     -5.508525   -0.592581    0.300734
 H      5.400606   -0.493358    0.492486
 H      6.281244    1.806122    0.874402
 H     -5.291660   -1.555669    2.236759
 H     -6.531132   -0.935272    0.167648
 C     -0.323033    4.465061    0.659114
 H     -0.253081    5.084063   -0.237581
 H     -1.338447    4.088484    0.740912
 H     -0.127111    5.104038    1.520960
 C     -0.900830    2.726960   -2.205070
 H     -1.431151    2.713327   -3.155012
 H     -0.804191    3.762884   -1.883278
 H      0.099621    2.325484   -2.364380
