63

 Si    -0.061183   -1.767632    0.131136
 O     -1.393173   -0.934776   -0.232818
 C     -2.433296   -1.034721   -1.143638
 C     -3.707968   -1.055540   -0.352030
 H     -2.330931   -1.972861   -1.696540
 C     -3.741662   -1.876976    0.767883
 C     -4.819286   -0.288119   -0.660519
 C     -4.859262   -1.919171    1.580854
 H     -2.879416   -2.483526    1.003172
 C     -5.947721   -0.330763    0.148024
 H     -4.821358    0.350466   -1.534008
 C     -5.968715   -1.139715    1.273016
 H     -4.867671   -2.564242    2.454714
 H     -6.813487    0.274386   -0.106287
 H     -6.849921   -1.169755    1.907723
 C     -2.307503    0.111981   -2.116930
 C     -0.954047    0.172581   -2.684188
 H     -3.027899    0.003073   -2.935252
 H     -2.517358    1.052418   -1.614679
 C      0.156209    0.210165   -3.137180
 H      1.131316    0.233834   -3.556606
 Cl     0.212543   -2.847103    1.814194
 Cl    -0.319341   -3.347804   -1.155468
 O      1.320074   -1.287726   -0.741094
 O      0.316237   -0.352949    1.167103
 C      2.516584    0.370876    0.227731
 C      1.352947    1.201851   -0.081095
 C     -0.897060    1.501717    0.568618
 C      3.332786   -1.854177    0.192763
 C      4.486637   -1.445921    0.871519
 C      3.638368    0.832331    0.937718
 C      4.604187   -0.092490    1.241067
 C      1.338139    2.336023   -0.900592
 C      0.156626    3.033552   -0.965619
 C     -0.969030    2.660929   -0.213797
 H      5.481483    0.213889    1.798811
 H      0.087125    3.905060   -1.606602
 N      2.395444   -0.905134   -0.084885
 N      0.255374    0.791368    0.537005
 C      3.124535   -3.190145   -0.187109
 H      2.208569   -3.441996   -0.698818
 C      5.464243   -2.430334    1.172445
 H      6.363597   -2.129480    1.697882
 C      4.078152   -4.108405    0.119479
 C      5.263219   -3.724630    0.805137
 C     -1.966519    1.077641    1.372396
 H     -1.831389    0.193054    1.967444
 C     -2.194465    3.382021   -0.214763
 H     -2.273165    4.275249   -0.824422
 C     -3.116776    1.793851    1.359167
 C     -3.236609    2.955345    0.544827
 H      3.933856   -5.148155   -0.161451
 H      6.011345   -4.478179    1.036296
 H     -3.955394    1.481790    1.973050
 H     -4.171129    3.510121    0.546403
 C      3.724108    2.263113    1.394680
 H      3.843807    2.940967    0.550960
 H      2.822488    2.548223    1.936749
 H      4.577481    2.390608    2.057474
 C      2.535113    2.732505   -1.723357
 H      2.226253    2.904609   -2.755205
 H      2.977674    3.658765   -1.351181
 H      3.296218    1.958062   -1.721307
