63

 Si     1.158673   -0.486003    1.720150
 O      0.885703   -1.785106    0.801447
 C      1.675031   -2.598820   -0.002981
 C      1.440518   -2.141281   -1.414329
 H      2.724717   -2.432688    0.248832
 C      0.905737   -2.939419   -2.409160
 C      1.754020   -0.819149   -1.703756
 C      0.682492   -2.424125   -3.679646
 H      0.665734   -3.974759   -2.209896
 C      1.531486   -0.298741   -2.962863
 H      2.183888   -0.202151   -0.931648
 C      0.989331   -1.102991   -3.958880
 H      0.267092   -3.064146   -4.452778
 H      1.790171    0.734274   -3.173344
 H      0.817238   -0.700999   -4.953406
 C      1.338885   -4.036484    0.293304
 C      1.460849   -4.304554    1.733602
 H      2.009824   -4.706363   -0.257804
 H      0.318699   -4.256705   -0.013292
 C      1.552000   -4.491698    2.915667
 H      1.641348   -4.678167    3.959666
 Cl     3.210170   -0.598181    1.817605
 Cl     0.813454   -0.301261    3.697511
 O      1.297883    0.952081    0.811161
 O     -0.605599   -0.217496    1.544620
 C     -0.647210    2.062556    0.502804
 C     -0.986146    0.924894   -0.351691
 C     -1.515670   -1.370050   -0.224486
 C      1.001103    2.892186    1.992955
 C      0.182078    3.987510    2.294069
 C     -1.522710    3.120636    0.789814
 C     -1.080931    4.065854    1.683229
 C     -1.289383    0.989109   -1.718051
 C     -1.719794   -0.171250   -2.307803
 C     -1.883723   -1.358841   -1.574603
 H     -1.729740    4.894053    1.944734
 H     -1.959089   -0.179304   -3.363731
 N      0.524046    1.975185    1.108124
 N     -1.023543   -0.222936    0.305620
 C      2.265956    2.724890    2.581225
 H      2.843694    1.852926    2.317176
 C      0.666506    4.945724    3.224457
 H      0.042623    5.798424    3.467583
 C      2.698036    3.658174    3.468547
 C      1.890334    4.783437    3.793771
 C     -1.681574   -2.505826    0.582612
 H     -1.390890   -2.440685    1.616296
 C     -2.404643   -2.557224   -2.129505
 H     -2.684387   -2.567878   -3.176478
 C     -2.200481   -3.629426    0.027214
 C     -2.557877   -3.658871   -1.349854
 H      3.671918    3.544068    3.937020
 H      2.260756    5.515408    4.506457
 H     -2.347582   -4.516060    0.637885
 H     -2.967472   -4.572324   -1.773064
 C     -2.903749    3.192560    0.194041
 H     -2.919954    3.855346   -0.673395
 H     -3.257519    2.212991   -0.112739
 H     -3.599841    3.592589    0.930877
 C     -1.104966    2.266509   -2.490759
 H     -0.967130    2.042431   -3.546777
 H     -1.977448    2.914339   -2.395656
 H     -0.232941    2.813811   -2.137697
