57

 Si     0.256402   -0.161637    1.755816
 O      0.626948   -1.414825    0.830295
 C      1.051710   -1.761663   -0.433933
 C      2.156174   -2.761852   -0.295507
 H      1.421051   -0.894552   -0.966020
 C      2.058627   -3.738653    0.683050
 C      3.270071   -2.721557   -1.120495
 C      3.069842   -4.670411    0.843902
 H      1.192539   -3.750725    1.329361
 C      4.283600   -3.657380   -0.967499
 H      3.349618   -1.958458   -1.886737
 C      4.185177   -4.631847    0.014914
 H      2.988396   -5.428835    1.617054
 H      5.153440   -3.623118   -1.617445
 H      4.979023   -5.363543    0.136744
 C     -0.123636   -2.318540   -1.203624
 C     -1.011972   -1.257018   -1.701641
 H      0.225287   -2.877935   -2.079357
 H     -0.673695   -3.004035   -0.563557
 C     -1.694249   -0.386710   -2.169791
 H     -2.306993    0.355882   -2.613549
 Cl     1.595317    1.103993    2.584023
 Cl    -0.072727   -1.240966    3.452532
 O      0.240660    0.765850    0.206966
 O     -1.354521    0.401065    1.799264
 C     -0.871504    2.707913    0.403465
 C     -2.094226    1.927444    0.283486
 C     -3.154291   -0.158088    0.519652
 C      1.463174    2.694525    0.085861
 C      1.512497    4.089763    0.212700
 C     -0.871037    4.108453    0.536746
 C      0.304358    4.782585    0.467917
 C     -3.188966    2.412985   -0.459356
 C     -4.285593    1.631943   -0.631117
 C     -4.289873    0.295592   -0.161399
 H     -1.812408    4.610820    0.715343
 H      0.330295    5.859799    0.592513
 H     -3.127867    3.409648   -0.874992
 H     -5.147468    2.005163   -1.175003
 C     -5.353520   -0.604085   -0.390281
 C     -3.027417   -1.517359    0.857804
 N      0.264511    2.050269    0.234128
 N     -2.141973    0.718884    0.806926
 C      2.644714    1.967063   -0.177368
 C      2.756005    4.748248    0.087806
 C      3.886559    4.028020   -0.160344
 C      3.827641    2.625108   -0.298125
 F      2.578925    0.679923   -0.313556
 H      2.788120    5.826343    0.190276
 H      4.847206    4.525684   -0.260026
 H      4.709869    2.030809   -0.501097
 C     -4.061435   -2.369949    0.623556
 C     -5.244941   -1.903226    0.015164
 H     -6.241229   -0.247249   -0.899175
 F     -1.884492   -1.925586    1.300199
 H     -3.924161   -3.410522    0.891508
 H     -6.057565   -2.603450   -0.157975
