57

 Si    -0.616651   -1.798937   -0.437566
 O      0.960841   -1.518164   -0.274395
 C      2.076432   -1.510109    0.532105
 C      1.942468   -0.409127    1.544693
 H      2.912623   -1.262176   -0.126230
 C      0.732715   -0.196465    2.179849
 C      3.009667    0.433466    1.821245
 C      0.570951    0.861691    3.056397
 H     -0.085434   -0.865132    1.986589
 C      2.860081    1.489491    2.707241
 H      3.966402    0.268244    1.339567
 C      1.635471    1.712365    3.321150
 H     -0.388403    1.015156    3.541513
 H      3.702997    2.142443    2.916235
 H      1.514357    2.542636    4.011408
 C      2.379909   -2.860881    1.129894
 C      2.492662   -3.860813    0.057286
 H      3.328057   -2.807661    1.679098
 H      1.597120   -3.158444    1.824206
 C      2.573235   -4.641797   -0.850575
 H      2.649581   -5.355014   -1.636405
 Cl    -1.431585   -2.857696   -1.929446
 Cl    -0.829587   -3.143479    1.077904
 O     -1.610425   -0.707647    0.424734
 O     -0.552598   -0.429228   -1.587458
 C     -1.792923    1.408494   -0.346150
 C     -0.341068    1.478937   -0.444660
 C      1.510481    0.566106   -1.568141
 C     -3.705093    0.043968   -0.153576
 C     -4.535056    1.124115   -0.495097
 C     -2.585118    2.522463   -0.674351
 C     -3.933029    2.381110   -0.742725
 C      0.433292    2.537244    0.052391
 C      1.754254    2.580473   -0.254843
 C      2.330565    1.597911   -1.094268
 H     -2.091128    3.459463   -0.894464
 H     -4.562800    3.224073   -1.007684
 H     -0.040727    3.280698    0.679167
 H      2.382425    3.375924    0.129611
 C      3.694808    1.607764   -1.460437
 C      2.035066   -0.439096   -2.406982
 N     -2.350878    0.245721   -0.072292
 N      0.205464    0.536963   -1.187826
 C     -4.272613   -1.224716    0.091060
 C     -5.930041    0.925908   -0.580155
 C     -6.459438   -0.308076   -0.336478
 C     -5.621752   -1.389155   -0.001300
 F     -3.497430   -2.213110    0.386288
 H     -6.561238    1.766432   -0.842819
 H     -7.531578   -0.471930   -0.400390
 H     -6.011645   -2.381720    0.189451
 C      3.352515   -0.406365   -2.741713
 C      4.189778    0.624051   -2.263801
 H      4.328798    2.405886   -1.093406
 F      1.253965   -1.367970   -2.840755
 H      3.723371   -1.197281   -3.381782
 H      5.237888    0.622991   -2.550913
