57

 Si    -0.654405    1.036492    1.807682
 O     -0.090029    2.157838    0.805753
 C     -0.031250    2.359657   -0.562711
 C      1.159183    1.622266   -1.094369
 H     -0.912231    1.949051   -1.035174
 C      2.442072    2.114091   -0.932922
 C      0.978021    0.401024   -1.723534
 C      3.532804    1.399615   -1.398746
 H      2.593345    3.061753   -0.436083
 C      2.063102   -0.322342   -2.188074
 H     -0.022321    0.021649   -1.860369
 C      3.346035    0.178116   -2.028117
 H      4.532655    1.803034   -1.273676
 H      1.905938   -1.270735   -2.692141
 H      4.200177   -0.378587   -2.401164
 C     -0.020511    3.847469   -0.795174
 C     -1.299415    4.433137   -0.362724
 H      0.136378    4.076665   -1.856316
 H      0.789150    4.299899   -0.222390
 C     -2.353122    4.882972   -0.004636
 H     -3.276836    5.308370    0.306959
 Cl     0.055627    1.868657    3.521170
 Cl    -2.560111    0.869574    2.458724
 O     -1.059007    0.143475    0.288227
 O      0.303207   -0.356192    2.048670
 C     -1.271252   -2.061781    0.602521
 C      0.184018   -2.108471    0.601136
 C      2.225453   -1.021881    1.024821
 C     -3.147666   -0.750940    0.046813
 C     -3.994725   -1.858537    0.189170
 C     -2.078161   -3.204727    0.745847
 C     -3.420359   -3.094690    0.572883
 C      0.863779   -3.159597   -0.044105
 C      2.220664   -3.169727   -0.066964
 C      2.951231   -2.084929    0.474260
 H     -1.607328   -4.140712    1.015961
 H     -4.065125   -3.956999    0.705031
 H      0.279203   -3.947401   -0.499667
 H      2.757401   -3.992073   -0.529076
 C      4.360258   -2.016693    0.463185
 C      2.889341    0.144785    1.441027
 N     -1.815591   -0.890770    0.320338
 N      0.864748   -1.121618    1.149884
 C     -3.668625    0.494295   -0.368045
 C     -5.376781   -1.699688   -0.057583
 C     -5.864691   -0.485887   -0.441654
 C     -5.000830    0.618350   -0.605265
 F     -2.859005    1.491412   -0.536558
 H     -6.030162   -2.556027    0.059298
 H     -6.925583   -0.355025   -0.636435
 H     -5.362308    1.588212   -0.923822
 C      4.249273    0.183532    1.438624
 C      4.991899   -0.916179    0.966338
 H      4.921348   -2.847559    0.052082
 F      2.170960    1.174212    1.729106
 H      4.723270    1.098547    1.771030
 H      6.076889   -0.858381    0.970956
