57

 Si    -0.585798   -1.513648   -0.008696
 O      0.863627   -0.882234    0.312759
 C      1.898916   -1.160270    1.185420
 C      3.095340   -1.483985    0.345144
 H      1.632700   -2.032103    1.786859
 C      2.900178   -2.377586   -0.698282
 C      4.348277   -0.926191    0.534745
 C      3.931492   -2.690295   -1.562126
 H      1.926323   -2.819548   -0.837745
 C      5.392904   -1.244552   -0.322445
 H      4.525886   -0.240010    1.352358
 C      5.185067   -2.119019   -1.377389
 H      3.758994   -3.384010   -2.379436
 H      6.372506   -0.802406   -0.163874
 H      6.000301   -2.362504   -2.053018
 C      2.052306    0.021761    2.109207
 C      0.755632    0.384230    2.696588
 H      2.756445   -0.207823    2.916821
 H      2.443032    0.880043    1.569560
 C     -0.316599    0.666678    3.155123
 H     -1.254225    0.909724    3.590980
 Cl    -1.032467   -2.589822   -1.642759
 Cl    -0.542866   -3.014654    1.367018
 O     -1.873402   -0.757784    0.816478
 O     -0.736766   -0.079810   -1.065789
 C     -2.544266    1.271288    0.073871
 C     -1.164731    1.732177    0.162797
 C      0.986072    1.395411   -0.723431
 C     -4.028129   -0.558726    0.021594
 C     -5.070579    0.275739   -0.414847
 C     -3.562669    2.148331   -0.335702
 C     -4.804282    1.656071   -0.576101
 C     -0.763135    2.918179    0.793615
 C      0.532890    3.309449    0.682766
 C      1.446416    2.562464   -0.097848
 H     -3.316771    3.191920   -0.480577
 H     -5.601985    2.311312   -0.910341
 H     -1.489913    3.476649    1.369059
 H      0.879645    4.209764    1.179188
 C      2.796701    2.940978   -0.272902
 C      1.844581    0.634881   -1.541688
 N     -2.793796   -0.010232    0.262825
 N     -0.303062    1.012159   -0.527852
 C     -4.266160   -1.938898    0.196170
 C     -6.342094   -0.279786   -0.674621
 C     -6.549706   -1.617434   -0.503278
 C     -5.501697   -2.449502   -0.065515
 F     -3.301986   -2.697384    0.594342
 H     -7.137732    0.374323   -1.010643
 H     -7.523612   -2.056026   -0.702039
 H     -5.634262   -3.515251    0.076455
 C      3.134674    1.028900   -1.700962
 C      3.617897    2.185322   -1.055627
 H      3.155711    3.838951    0.215892
 F      1.384864   -0.412574   -2.133102
 H      3.766736    0.417610   -2.329587
 H      4.656574    2.469749   -1.199409
