57

 Si    -0.743647   -1.880827   -0.174394
 O      0.842566   -1.602580   -0.033079
 C      1.768765   -1.762844    0.983588
 C      1.839213   -0.450630    1.715009
 H      1.409633   -2.528810    1.673301
 C      2.978023    0.331788    1.791828
 C      0.671756    0.002502    2.313997
 C      2.950626    1.554126    2.450798
 H      3.904526   -0.004650    1.347647
 C      0.632509    1.221306    2.963103
 H     -0.207964   -0.616572    2.274073
 C      1.777454    2.005599    3.033312
 H      3.855359    2.152811    2.508473
 H     -0.290517    1.555030    3.427806
 H      1.755808    2.962204    3.547958
 C      3.061620   -2.240106    0.378446
 C      2.828781   -3.405739   -0.481714
 H      3.773622   -2.505700    1.168886
 H      3.516183   -1.455939   -0.219626
 C      2.610633   -4.341856   -1.199580
 H      2.434775   -5.180751   -1.830305
 Cl    -1.637036   -3.014056   -1.565302
 Cl    -0.955813   -3.122484    1.428820
 O     -1.667659   -0.686892    0.622974
 O     -0.650719   -0.616414   -1.432841
 C     -1.783287    1.366182   -0.320017
 C     -0.333414    1.371373   -0.465629
 C      1.451006    0.286559   -1.545621
 C     -3.743435    0.107447    0.043066
 C     -4.539714    1.191783   -0.359491
 C     -2.540861    2.482870   -0.714820
 C     -3.895047    2.396902   -0.727791
 C      0.493352    2.442154   -0.094890
 C      1.803643    2.408019   -0.444652
 C      2.319566    1.329671   -1.202240
 H     -2.016801    3.376575   -1.026244
 H     -4.497940    3.243275   -1.040154
 H      0.066335    3.259391    0.470278
 H      2.468513    3.216349   -0.162856
 C      3.663657    1.266397   -1.631352
 C      1.907853   -0.804111   -2.312513
 N     -2.379743    0.255104    0.066843
 N      0.156610    0.346623   -1.132998
 C     -4.353841   -1.112014    0.406384
 C     -5.943749    1.048547   -0.385514
 C     -6.514695   -0.137723   -0.026217
 C     -5.710971   -1.224183    0.369203
 F     -3.610651   -2.108457    0.753445
 H     -6.548402    1.892079   -0.696518
 H     -7.594096   -0.259872   -0.045456
 H     -6.134386   -2.181144    0.649465
 C      3.202650   -0.831898   -2.726353
 C      4.088591    0.209660   -2.380980
 H      4.336357    2.072681   -1.364634
 F      1.086538   -1.750339   -2.609288
 H      3.519299   -1.685272   -3.312140
 H      5.118564    0.156860   -2.723495
