57

 Si     0.329416   -0.107666    1.268914
 O      0.956771   -0.976090    0.084476
 C      1.461738   -2.246157   -0.125472
 C      2.905947   -2.272862    0.268520
 H      0.911904   -2.969915    0.474790
 C      3.721324   -1.220205   -0.118098
 C      3.430536   -3.303299    1.031888
 C      5.052080   -1.189542    0.258007
 H      3.300946   -0.419664   -0.706392
 C      4.767364   -3.281995    1.405719
 H      2.795043   -4.124898    1.343590
 C      5.578862   -2.225483    1.021410
 H      5.682693   -0.359394   -0.045984
 H      5.173107   -4.092868    2.003960
 H      6.624212   -2.207073    1.316667
 C      1.256788   -2.535390   -1.593534
 C     -0.142852   -2.343302   -2.006368
 H      1.563335   -3.559998   -1.837937
 H      1.873669   -1.850146   -2.176372
 C     -1.275336   -2.169105   -2.366578
 H     -2.263970   -2.048490   -2.732680
 Cl     1.351626    1.436010    2.074352
 Cl     0.569940   -1.363188    2.858726
 O     -0.202179    0.895009   -0.141667
 O     -1.355835   -0.070789    1.556471
 C     -1.762730    2.397201    0.442197
 C     -2.705764    1.293223    0.332146
 C     -3.024720   -1.038284    0.329774
 C      0.401263    3.090246   -0.184858
 C      0.090657    4.421992    0.119211
 C     -2.125516    3.719839    0.754354
 C     -1.202583    4.707429    0.623550
 C     -3.960426    1.481970   -0.279503
 C     -4.755028    0.410024   -0.527179
 C     -4.293527   -0.900054   -0.248652
 H     -3.128698    3.911515    1.112480
 H     -1.451971    5.730966    0.882527
 H     -4.256375    2.487622   -0.546446
 H     -5.731815    0.541762   -0.981346
 C     -5.037015   -2.060704   -0.553486
 C     -2.468287   -2.318004    0.511211
 N     -0.531718    2.120302    0.045400
 N     -2.317090    0.081499    0.680542
 C      1.665474    2.748928   -0.714771
 C      1.073254    5.415045   -0.089968
 C      2.293179    5.069028   -0.591887
 C      2.589339    3.726418   -0.912672
 F      1.909242    1.512358   -1.014369
 H      0.836668    6.444776    0.150022
 H      3.053875    5.826801   -0.758774
 H      3.548073    3.433877   -1.322341
 C     -3.202239   -3.423809    0.210886
 C     -4.505453   -3.294565   -0.308689
 H     -6.024520   -1.950768   -0.985937
 F     -1.239245   -2.397757    0.895091
 H     -2.733036   -4.389102    0.355821
 H     -5.070395   -4.193270   -0.540743
