57

 Si     0.044095   -0.087857    1.777067
 O      0.108802   -1.514232    1.035871
 C      0.531464   -2.102798   -0.134530
 C      1.751034   -2.935521    0.136726
 H      0.790122   -1.343844   -0.868239
 C      2.021709   -3.358709    1.425272
 C      2.617232   -3.275834   -0.894933
 C      3.156515   -4.109188    1.691487
 H      1.345118   -3.087711    2.222169
 C      3.750986   -4.027525   -0.634612
 H      2.404774   -2.951118   -1.907441
 C      4.024304   -4.444336    0.661642
 H      3.362186   -4.431594    2.708094
 H      4.425059   -4.286712   -1.446092
 H      4.914402   -5.031962    0.867931
 C     -0.607707   -2.930191   -0.691468
 C     -1.551597   -2.110218   -1.472414
 H     -0.227155   -3.703263   -1.367649
 H     -1.125914   -3.419695    0.132243
 C     -2.272563   -1.451867   -2.172471
 H     -2.917993   -0.907949   -2.814378
 Cl     1.564684    0.982291    2.597315
 Cl    -0.515477   -0.840789    3.600167
 O      0.403757    0.624531    0.164330
 O     -1.481687    0.677425    1.590419
 C     -0.400192    2.693429    0.125311
 C     -1.687638    2.072871   -0.176104
 C     -3.289369    0.357699    0.147384
 C      1.943678    2.376625    0.068879
 C      2.116203    3.766647    0.203399
 C     -0.266396    4.081464    0.247522
 C      0.984324    4.602947    0.323949
 C     -2.434010    2.637689   -1.220610
 C     -3.625148    2.084931   -1.546679
 C     -4.081203    0.935094   -0.867438
 H     -1.157457    4.692494    0.298318
 H      1.132852    5.670065    0.448310
 H     -2.037267    3.501792   -1.734541
 H     -4.235686    2.505406   -2.338519
 C     -5.318534    0.362330   -1.225431
 C     -3.742478   -0.829493    0.762980
 N      0.653854    1.898196    0.110710
 N     -2.101999    0.999264    0.472559
 C      3.073140    1.543042   -0.093030
 C      3.417893    4.314290    0.215264
 C      4.498470    3.501185    0.078207
 C      4.312101    2.116363   -0.085181
 Cl     2.987312   -0.129009   -0.318986
 H      3.528602    5.386230    0.328401
 H      5.505898    3.906853    0.082196
 H      5.176569    1.475024   -0.213856
 C     -5.756300   -0.762251   -0.597695
 C     -4.951965   -1.350640    0.387212
 Cl    -2.868266   -1.700427    1.904330
 H     -5.901560    0.837863   -2.005196
 H     -6.707602   -1.216633   -0.858422
 H     -5.283975   -2.262673    0.870255
