57

 Si    -0.663218   -1.139548   -0.427858
 O      0.802301   -0.671695    0.067202
 C      1.882119   -0.831491    0.901365
 C      2.945659   -1.646007    0.233478
 H      2.286000    0.171990    1.052929
 C      4.282747   -1.449968    0.556915
 C      2.610214   -2.566197   -0.742584
 C      5.272816   -2.168549   -0.093371
 H      4.553916   -0.732306    1.323332
 C      3.595490   -3.284663   -1.399717
 H      1.573764   -2.722698   -0.988592
 C      4.930407   -3.086984   -1.077137
 H      6.315559   -2.010060    0.167229
 H      3.316381   -4.002246   -2.165565
 H      5.705066   -3.649511   -1.590598
 C      1.476768   -1.336923    2.264148
 C      0.440304   -0.465000    2.840707
 H      2.350840   -1.337246    2.925989
 H      1.093072   -2.352384    2.200609
 C     -0.401696    0.261123    3.293259
 H     -1.149256    0.872630    3.734455
 Cl    -1.456471   -1.778154   -2.175768
 Cl    -0.615710   -2.971113    0.463841
 O     -1.838771   -0.481982    0.611059
 O     -0.661191    0.446873   -1.227269
 C     -2.432814    1.599230   -0.001343
 C     -1.056387    1.985255    0.306762
 C      1.143384    1.709466   -0.507432
 C     -3.984524   -0.170069   -0.237196
 C     -4.824182    0.685654   -0.973371
 C     -3.309569    2.516546   -0.588992
 C     -4.465309    2.043478   -1.124585
 C     -0.663206    2.934732    1.248294
 C      0.668719    3.196568    1.357201
 C      1.600506    2.594353    0.483449
 H     -3.004840    3.551230   -0.674266
 H     -5.134754    2.704661   -1.665036
 H     -1.407797    3.399693    1.881667
 H      1.033870    3.887554    2.109922
 C      2.986784    2.854787    0.583821
 C      2.034799    1.153693   -1.447877
 N     -2.754341    0.326936    0.125922
 N     -0.179501    1.394896   -0.478579
 C     -4.426310   -1.466098    0.103373
 C     -6.026713    0.183449   -1.516382
 C     -6.380012   -1.112542   -1.296342
 C     -5.589213   -1.918059   -0.457562
 Cl    -3.677916   -2.420786    1.280524
 H     -6.651001    0.848135   -2.101865
 H     -7.295298   -1.519008   -1.716633
 H     -5.925608   -2.918679   -0.209294
 C      3.850723    2.260969   -0.280908
 C      3.363241    1.425250   -1.305113
 Cl     1.545829    0.230275   -2.775236
 H      3.335796    3.530252    1.356337
 H      4.918968    2.445276   -0.211795
 H      4.059567    0.995012   -2.015521
