57

 Si    -0.313205   -0.591339    0.591489
 O      1.074569   -1.372491    0.244726
 C      2.066818   -2.105275    0.852830
 C      3.292966   -2.020305   -0.007015
 H      2.285968   -1.689340    1.839456
 C      3.140125   -2.006564   -1.383992
 C      4.564670   -1.952590    0.541038
 C      4.244455   -1.913479   -2.212806
 H      2.144316   -2.057899   -1.797718
 C      5.676242   -1.863830   -0.284414
 H      4.690096   -1.964889    1.618221
 C      5.518269   -1.841600   -1.661974
 H      4.112393   -1.898643   -3.290578
 H      6.669245   -1.809338    0.152734
 H      6.388330   -1.770438   -2.308573
 C      1.624336   -3.544272    1.013701
 C      0.557242   -3.702068    2.015986
 H      2.473351   -4.163831    1.324405
 H      1.268933   -3.908400    0.049663
 C     -0.297580   -3.832419    2.849238
 H     -1.052484   -3.957752    3.586724
 Cl     0.059399   -0.138731    2.525597
 Cl    -1.403177   -2.073724   -0.276158
 O      0.129261    0.652712   -0.502451
 O     -1.795220    0.378816    0.834611
 C     -1.338463    2.345915   -0.655684
 C     -2.347638    1.375646   -1.075129
 C     -3.741249   -0.334743   -0.225679
 C      0.814834    2.761022    0.232362
 C      0.425061    4.089118    0.499832
 C     -1.721640    3.684180   -0.497856
 C     -0.859037    4.533212    0.112551
 C     -3.074711    1.464114   -2.263772
 C     -4.091772    0.580145   -2.453559
 C     -4.463049   -0.322202   -1.431797
 H     -2.714140    3.982083   -0.808045
 H     -1.138488    5.563143    0.307344
 H     -2.793060    2.203055   -3.002837
 H     -4.655952    0.579511   -3.379998
 C     -5.557586   -1.201454   -1.592537
 C     -4.159730   -1.147513    0.851836
 N     -0.146278    1.917223   -0.291274
 N     -2.635723    0.471804   -0.158001
 C      2.144533    2.366210    0.493860
 C      1.325460    4.977256    1.124122
 C      2.580322    4.559305    1.445888
 C      2.982979    3.258177    1.106621
 Cl     2.782999    0.879826    0.033692
 H      0.995265    5.987674    1.334231
 H      3.283980    5.228230    1.932635
 H      3.999840    2.943240    1.312526
 C     -5.917826   -2.026515   -0.573781
 C     -5.224951   -1.977184    0.651700
 Cl    -3.463550   -1.087372    2.395511
 H     -6.097779   -1.194786   -2.531851
 H     -6.757014   -2.707717   -0.680941
 H     -5.554956   -2.602913    1.473289
