57

 Si    -0.556124   -1.460119   -0.029680
 O      0.873398   -0.778130    0.317831
 C      1.841801   -0.961983    1.293751
 C      3.134213   -1.228589    0.586211
 H      1.577761   -1.836021    1.891318
 C      4.296688   -0.507025    0.797687
 C      3.131239   -2.249631   -0.354422
 C      5.441510   -0.791927    0.065702
 H      4.328269    0.279831    1.538779
 C      4.265092   -2.534938   -1.091056
 H      2.227267   -2.821119   -0.505800
 C      5.426541   -1.800191   -0.884654
 H      6.349177   -0.222109    0.243467
 H      4.245147   -3.334317   -1.825745
 H      6.321397   -2.021413   -1.459623
 C      1.839107    0.240650    2.201128
 C      0.490038    0.515873    2.711171
 H      2.509367    0.074040    3.051880
 H      2.196841    1.117365    1.671044
 C     -0.614698    0.735609    3.124067
 H     -1.587825    0.921383    3.507144
 Cl    -1.218711   -2.536271   -1.608691
 Cl    -0.390130   -3.030493    1.261836
 O     -1.829422   -0.717365    0.827329
 O     -0.695036   -0.083303   -1.143755
 C     -2.629664    1.098937   -0.237394
 C     -1.319359    1.707077   -0.012181
 C      0.921620    1.522600   -0.731432
 C     -3.962085   -0.848387   -0.090706
 C     -4.853888   -0.292263   -1.025044
 C     -3.578617    1.748964   -1.033922
 C     -4.644037    1.030433   -1.475046
 C     -1.076423    2.899996    0.666178
 C      0.207269    3.352795    0.701252
 C      1.231861    2.682657   -0.002072
 H     -3.390968    2.768284   -1.344389
 H     -5.356691    1.467427   -2.166861
 H     -1.892006    3.405278    1.167477
 H      0.458457    4.251605    1.254743
 C      2.566344    3.151050    0.004106
 C      1.891593    0.894037   -1.537932
 N     -2.810123   -0.142175    0.167906
 N     -0.350820    1.056139   -0.623428
 C     -4.277788   -2.068800    0.542479
 C     -5.962349   -1.048598   -1.463550
 C     -6.178240   -2.292043   -0.953143
 C     -5.350870   -2.777056    0.075719
 Cl    -3.505787   -2.607404    1.947106
 H     -6.626774   -0.617943   -2.203456
 H     -7.018101   -2.893309   -1.288875
 H     -5.590076   -3.722492    0.550074
 C      3.517272    2.490659   -0.706937
 C      3.165664    1.375679   -1.493027
 Cl     1.537471   -0.334387   -2.641115
 H      2.805465    4.037751    0.579828
 H      4.547354    2.834884   -0.708672
 H      3.921393    0.898801   -2.104605
