57

 Si    -0.170982   -0.488109    0.858370
 O      1.435318   -1.221733    0.340347
 C      2.291563   -1.832590    0.966296
 C      3.482531   -2.382770    0.344451
 H      2.170607   -1.977686    2.043716
 C      3.654287   -2.271653   -1.036555
 C      4.448508   -3.011093    1.126746
 C      4.787022   -2.781341   -1.630818
 H      2.883017   -1.786777   -1.620086
 C      5.589558   -3.522040    0.528601
 H      4.304498   -3.096172    2.199544
 C      5.755656   -3.405660   -0.843811
 H      4.926359   -2.700577   -2.704507
 H      6.348249   -4.011721    1.131741
 H      6.650638   -3.807519   -1.313124
 C     -2.279176   -3.533750   -0.822309
 C     -1.575478   -2.436922   -0.735487
 H     -3.361956   -3.507487   -0.824312
 H     -1.785736   -4.498991   -0.895930
 C     -0.876784   -1.334032   -0.673962
 H     -0.634467   -0.902553   -1.639801
 Cl     0.839033    0.660971    2.317064
 Cl    -0.576814   -2.032038    2.196890
 O      0.249155    0.818979   -0.369533
 O     -1.607562    0.483327    1.217573
 C     -1.146152    2.536040   -0.205969
 C     -2.182125    1.591576   -0.627527
 C     -3.532550   -0.198976    0.105566
 C      1.143683    2.875554    0.234751
 C      0.844926    4.154614    0.732636
 C     -1.471736    3.843014    0.174574
 C     -0.488520    4.621658    0.693864
 C     -2.879981    1.694546   -1.834336
 C     -3.819793    0.750145   -2.111291
 C     -4.182577   -0.209909   -1.139008
 H     -2.500123    4.171114    0.097284
 H     -0.705604    5.618394    1.062209
 H     -2.619450    2.483238   -2.528395
 H     -4.336253    0.748490   -3.065534
 C     -5.210503   -1.152062   -1.367792
 C     -4.011174   -0.986957    1.173813
 N      0.084191    2.072843   -0.116549
 N     -2.451373    0.632964    0.235783
 C      2.488903    2.467199    0.107176
 C      1.887606    4.963725    1.238700
 C      3.170609    4.516439    1.209832
 C      3.465115    3.275691    0.611940
 Cl     2.969779    1.095406   -0.764035
 H      1.639097    5.938798    1.641016
 H      3.981038    5.124821    1.600406
 H      4.498693    2.963979    0.514691
 C     -5.585298   -1.999197   -0.371006
 C     -5.004542   -1.886173    0.907420
 Cl    -3.548696   -0.723241    2.780880
 H     -5.690848   -1.175325   -2.338986
 H     -6.370864   -2.731634   -0.533007
 H     -5.382522   -2.496836    1.719785
