57

 Si    -0.334883   -0.637730    0.525980
 O      1.004792   -1.442810    0.064463
 C      1.968709   -2.286986    0.563506
 C      3.182701   -2.167336   -0.309214
 H      2.225205   -1.996244    1.585466
 C      3.007539   -1.981645   -1.670868
 C      4.465278   -2.237138    0.212712
 C      4.101284   -1.852782   -2.508989
 H      2.003546   -1.928421   -2.063964
 C      5.565949   -2.113177   -0.622642
 H      4.607532   -2.384745    1.277691
 C      5.386210   -1.918242   -1.983884
 H      3.952213   -1.702768   -3.574142
 H      6.567752   -2.166828   -0.205922
 H      6.247797   -1.819450   -2.638159
 C      1.455333   -3.711504    0.573424
 C      0.395957   -3.928293    1.572638
 H      2.276548   -4.402393    0.796117
 H      1.068466   -3.948053   -0.418031
 C     -0.453325   -4.109163    2.402121
 H     -1.202803   -4.279262    3.136152
 Cl     0.088562   -0.430711    2.491499
 Cl    -1.513565   -1.954143   -0.481776
 O      0.153766    0.700303   -0.427835
 O     -1.761735    0.370162    0.909793
 C     -1.224669    2.471818   -0.352498
 C     -2.288920    1.608803   -0.860689
 C     -3.756431   -0.117848   -0.187048
 C      0.960508    2.670816    0.532404
 C      0.644304    3.975586    0.962328
 C     -1.534602    3.799981   -0.032544
 C     -0.620170    4.526358    0.655812
 C     -3.026649    1.870294   -2.016816
 C     -4.090048    1.065398   -2.287379
 C     -4.493059    0.069963   -1.369325
 H     -2.514502    4.181838   -0.285296
 H     -0.842129    5.538909    0.975626
 H     -2.718161    2.675490   -2.670997
 H     -4.666205    1.199927   -3.196664
 C     -5.633525   -0.729427   -1.608466
 C     -4.202217   -1.026939    0.798588
 N     -0.051155    1.943990   -0.065865
 N     -2.610038    0.619634   -0.048611
 C      2.271918    2.182329    0.716521
 C      1.599126    4.737502    1.667393
 C      2.835432    4.222477    1.910560
 C      3.164954    2.952468    1.411773
 Cl     2.825069    0.731569    0.069769
 H      1.325198    5.731147    2.001702
 H      3.580569    4.793404    2.456842
 H      4.167335    2.565534    1.556698
 C     -6.022028   -1.647688   -0.684188
 C     -5.310967   -1.774602    0.525197
 Cl    -3.484111   -1.178775    2.325890
 H     -6.185443   -0.587342   -2.530072
 H     -6.896427   -2.269537   -0.852756
 H     -5.661786   -2.473716    1.275972
