57

 Si     0.622509   -1.597906    0.808039
 O     -0.950379   -1.412840    0.490708
 C     -2.021405   -1.640747   -0.343241
 C     -1.843039   -0.860269   -1.614395
 H     -2.888031   -1.232342    0.182297
 C     -0.587577   -0.713146   -2.173831
 C     -2.929915   -0.245649   -2.221402
 C     -0.404207    0.058924   -3.307886
 H      0.250945   -1.210172   -1.724537
 C     -2.756653    0.524143   -3.360767
 H     -3.921207   -0.365007   -1.799862
 C     -1.489087    0.685561   -3.903902
 H      0.590881    0.163900   -3.729916
 H     -3.615152    1.001277   -3.825474
 H     -1.350227    1.291793   -4.794755
 C     -2.303365   -3.105620   -0.568377
 C     -2.466343   -3.790394    0.722641
 H     -3.228539   -3.205720   -1.149410
 H     -1.497016   -3.572985   -1.128973
 C     -2.591195   -4.313876    1.795498
 H     -2.708152   -4.800774    2.734185
 Cl     1.435927   -2.277040    2.511156
 Cl     0.875839   -3.259477   -0.355396
 O      1.724929   -0.729263   -0.172010
 O      0.428412   -0.029575    1.636584
 C      1.801500    1.482700    0.211627
 C      0.350568    1.518285    0.051671
 C     -1.638246    0.904881    1.166090
 C      3.756889    0.188429    0.544687
 C      4.427700    1.356332    0.963542
 C      2.466906    2.673093    0.528321
 C      3.759448    2.599989    0.930236
 C     -0.326993    2.361014   -0.831022
 C     -1.680637    2.418802   -0.738458
 C     -2.365068    1.705559    0.269602
 H      1.914314    3.602357    0.500862
 H      4.296825    3.491456    1.235622
 H      0.235585    2.917992   -1.568400
 H     -2.254706    3.030743   -1.424353
 C     -3.770340    1.778222    0.389921
 C     -2.291463    0.238400    2.223953
 N      2.419258    0.317068    0.222701
 N     -0.295590    0.803019    0.951033
 C      4.474107   -1.026650    0.471387
 C      5.770107    1.289386    1.392086
 C      6.427463    0.098113    1.386144
 C      5.771995   -1.046966    0.908205
 Cl     3.858732   -2.455571   -0.178923
 H      6.255065    2.201243    1.719786
 H      7.458646    0.025899    1.719063
 H      6.311487   -1.986357    0.859996
 C     -4.402015    1.086403    1.374239
 C     -3.651288    0.331848    2.296289
 Cl    -1.491850   -0.607536    3.448541
 H     -4.321484    2.391122   -0.313290
 H     -5.482543    1.128064    1.477937
 H     -4.162326   -0.180131    3.103931
