57

 Si    -0.240149   -0.586275    1.009286
 O      1.432107   -1.211856    0.553172
 C      1.791447   -2.334445    0.226693
 C      3.179504   -2.715720    0.041589
 H      1.042711   -3.114351    0.064079
 C      4.196528   -1.826759    0.391394
 C      3.489017   -3.978413   -0.463017
 C      5.514578   -2.192338    0.225374
 H      3.926109   -0.861754    0.797280
 C      4.813754   -4.342768   -0.635124
 H      2.692176   -4.669408   -0.720322
 C      5.820624   -3.450509   -0.291930
 H      6.310967   -1.507155    0.498850
 H      5.062879   -5.322268   -1.032088
 H      6.861175   -3.738026   -0.423820
 C     -0.817055   -0.749295   -2.984485
 C     -0.907861   -1.114835   -1.733252
 H     -1.587232   -0.149367   -3.456841
 H      0.026130   -1.064165   -3.593415
 C     -0.991810   -1.477097   -0.483132
 H     -1.501797   -2.419686   -0.301717
 Cl     0.745919    0.537396    2.494636
 Cl    -0.579000   -2.211667    2.274893
 O      0.110854    0.736679   -0.184684
 O     -1.695473    0.328731    1.421609
 C     -1.274074    2.450987    0.109668
 C     -2.316969    1.531902   -0.345564
 C     -3.582336   -0.365810    0.252839
 C      1.034356    2.753729    0.458616
 C      0.773002    3.984581    1.078526
 C     -1.569841    3.728700    0.597595
 C     -0.558186    4.456577    1.138692
 C     -3.032457    1.699964   -1.534406
 C     -3.924670    0.734159   -1.883237
 C     -4.223608   -0.324112   -0.995183
 H     -2.597058    4.069585    0.588526
 H     -0.752496    5.420413    1.596849
 H     -2.808710    2.548190   -2.168461
 H     -4.442387    0.779026   -2.835688
 C     -5.171319   -1.323647   -1.310919
 C     -4.014450   -1.260771    1.254584
 N     -0.044596    1.979458    0.116129
 N     -2.545954    0.507851    0.449776
 C      2.361650    2.355651    0.198397
 C      1.851828    4.734941    1.599153
 C      3.125051    4.278965    1.460338
 C      3.374404    3.103504    0.723757
 Cl     2.750738    1.111894   -0.884694
 H      1.640009    5.672242    2.100326
 H      3.962765    4.841447    1.862090
 H      4.398111    2.806486    0.527074
 C     -5.477248   -2.279699   -0.391401
 C     -4.924151   -2.217781    0.903614
 Cl    -3.604682   -1.060792    2.885700
 H     -5.643470   -1.306939   -2.286260
 H     -6.196472   -3.060032   -0.623076
 H     -5.262883   -2.915316    1.661610
