57

 Si     0.067910    0.471631    0.873310
 O     -0.061646    1.535968   -0.320984
 C     -0.008951    2.918303   -0.443850
 C     -1.079997    3.553235    0.389151
 H      0.970352    3.269935   -0.109649
 C     -2.364520    3.037450    0.334183
 C     -0.809624    4.631869    1.215038
 C     -3.373462    3.581236    1.107639
 H     -2.564092    2.199119   -0.314875
 C     -1.818925    5.187261    1.988153
 H      0.193994    5.038925    1.263584
 C     -3.100926    4.661047    1.938645
 H     -4.375580    3.165945    1.061246
 H     -1.599769    6.032037    2.634797
 H     -3.890387    5.093253    2.546946
 C     -0.188528    3.235881   -1.909230
 C      0.797773    2.550678   -2.758233
 H     -0.109961    4.317206   -2.075324
 H     -1.186199    2.922731   -2.215003
 C      1.597011    1.992709   -3.459321
 H      2.303984    1.521640   -4.098722
 Cl    -1.651322   -0.055717    1.797762
 Cl     0.787435    1.663446    2.370667
 O     -0.155218   -0.732658   -0.453483
 O      1.406059   -0.553899    1.193822
 C     -0.070236   -2.778159    0.457930
 C      1.382367   -2.682598    0.383218
 C      3.324708   -1.339492    0.227192
 C     -2.105629   -1.948326   -0.424579
 C     -2.795011   -3.015317    0.174237
 C     -0.720303   -3.886780    1.022048
 C     -2.070550   -3.970400    0.924298
 C      2.131505   -3.839259    0.094562
 C      3.480250   -3.749068   -0.004499
 C      4.115997   -2.485531    0.056674
 H     -0.133039   -4.618283    1.560102
 H     -2.609448   -4.785558    1.394947
 H      1.610314   -4.779422   -0.019725
 H      4.083503   -4.634818   -0.174624
 C      5.513071   -2.350406   -0.083138
 C      3.901498   -0.060391    0.098440
 N     -0.761962   -1.832712   -0.158159
 N      1.984133   -1.515194    0.509944
 C     -2.790575   -1.033223   -1.253271
 C     -4.193916   -3.112539    0.018006
 C     -4.858750   -2.188339   -0.727228
 C     -4.144703   -1.164108   -1.376474
 Cl    -2.011468    0.151048   -2.175930
 H     -4.716117   -3.931870    0.497944
 H     -5.935815   -2.248239   -0.854476
 H     -4.675507   -0.467588   -2.015651
 C      6.078734   -1.110400   -0.081799
 C      5.260730    0.031540   -0.024086
 Cl     2.965102    1.326613   -0.110413
 H      6.115292   -3.244946   -0.192250
 H      7.154080   -0.990889   -0.178262
 H      5.706336    1.015425   -0.121250
