57

 Si     0.818675   -1.812522    0.246835
 O     -0.783902   -1.614899    0.084673
 C     -1.697019   -1.870642   -0.927998
 C     -1.768607   -0.637885   -1.787630
 H     -1.329467   -2.696724   -1.538757
 C     -2.931808    0.078982   -2.009615
 C     -0.590186   -0.199904   -2.375393
 C     -2.917219    1.222057   -2.798159
 H     -3.867443   -0.249435   -1.579036
 C     -0.563970    0.940911   -3.154125
 H      0.309652   -0.770474   -2.228673
 C     -1.732837    1.660540   -3.368125
 H     -3.840659    1.768923   -2.967308
 H      0.369531    1.262487   -3.606341
 H     -1.720897    2.555692   -3.983758
 C     -2.997891   -2.290655   -0.301346
 C     -2.805070   -3.437059    0.594194
 H     -3.719774   -2.563981   -1.079591
 H     -3.422920   -1.470723    0.268498
 C     -2.633164   -4.371995    1.326269
 H     -2.497164   -5.205674    1.973660
 Cl     1.840770   -2.819174    1.653413
 Cl     1.026312   -3.162503   -1.278276
 O      1.755535   -0.652790   -0.588271
 O      0.641601   -0.519778    1.461033
 C      1.733654    1.409104    0.310520
 C      0.274274    1.356509    0.338766
 C     -1.513346    0.323943    1.486721
 C      3.794583    0.259116    0.098124
 C      4.443337    1.361393    0.692485
 C      2.362643    2.553162    0.817604
 C      3.700366    2.513421    1.031495
 C     -0.559581    2.336260   -0.205122
 C     -1.888294    2.257053    0.059490
 C     -2.394951    1.257423    0.919945
 H      1.754605    3.408299    1.079353
 H      4.217645    3.360489    1.469260
 H     -0.131571    3.106867   -0.831497
 H     -2.577838    2.978631   -0.361966
 C     -3.768858    1.191937    1.238204
 C     -1.974824   -0.619504    2.427088
 N      2.419823    0.333356   -0.027701
 N     -0.207358    0.393377    1.096725
 C      4.568347   -0.841373   -0.334180
 C      5.833604    1.325599    0.928764
 C      6.556716    0.230645    0.569126
 C      5.913196   -0.837325   -0.074539
 Cl     3.960369   -2.151779   -1.204939
 H      6.301245    2.183046    1.397994
 H      7.626456    0.181731    0.749894
 H      6.497498   -1.691240   -0.398986
 C     -4.218964    0.245968    2.104972
 C     -3.310760   -0.644275    2.707396
 Cl    -0.965122   -1.653464    3.299723
 H     -4.442497    1.911198    0.787592
 H     -5.272585    0.184139    2.362024
 H     -3.673889   -1.366482    3.429492
