63

 Si     0.509920   -0.064866   -0.530235
 O      0.966884   -1.490622    0.130118
 C      1.772204   -1.900027    1.172356
 C      2.973625   -2.609479    0.620751
 H      2.106667   -1.034594    1.748053
 C      2.827495   -3.404034   -0.505012
 C      4.220288   -2.487727    1.216387
 C      3.916836   -4.069654   -1.041143
 H      1.854656   -3.485212   -0.967105
 C      5.314863   -3.156935    0.687091
 H      4.341110   -1.867246    2.097872
 C      5.165427   -3.947799   -0.442805
 H      3.792238   -4.686067   -1.926637
 H      6.288255   -3.057357    1.159167
 H      6.022140   -4.470462   -0.858839
 C      0.971665   -2.797426    2.090584
 C     -0.165642   -2.089623    2.702881
 H      1.613530   -3.175763    2.895549
 H      0.601766   -3.654907    1.528214
 C     -1.089800   -1.506796    3.201725
 H     -1.903252   -1.019012    3.680228
 Cl     2.109675    0.978625    0.151005
 Cl     0.502241   -0.662542   -2.452102
 O     -0.292397    1.433030   -1.071665
 O     -0.962226   -0.329069    0.309915
 C     -1.384403    2.272475    0.697576
 C     -2.452047    1.356410    0.302110
 C     -3.083425   -0.773304   -0.530027
 C      0.492391    3.429615   -0.169213
 C      0.491033    4.255402    0.970411
 C     -1.456466    3.110027    1.810629
 C     -0.483156    4.052432    1.969481
 C     -3.736413    1.876892    0.100536
 C     -4.672779    1.080856   -0.475816
 C     -4.365150   -0.253890   -0.815559
 H     -2.256536    2.969812    2.525576
 H     -0.473882    4.689554    2.847697
 H     -3.928553    2.909160    0.359482
 H     -5.666765    1.460478   -0.687396
 C     -5.340341   -1.078155   -1.420412
 C     -2.794637   -2.139644   -0.776171
 N     -0.397560    2.387355   -0.177191
 N     -2.159514    0.106571   -0.002109
 C      1.353241    3.683062   -1.266764
 C      1.452803    5.289922    1.069892
 C      2.325962    5.495297    0.049746
 C      2.248385    4.705255   -1.122026
 C      1.263449    2.936320   -2.564621
 H      1.462907    5.909464    1.958930
 H      3.066862    6.287920    0.107134
 H      2.916755    4.933724   -1.945281
 C     -5.044239   -2.373222   -1.708580
 C     -3.777625   -2.890170   -1.367382
 C     -1.517665   -2.812786   -0.388105
 H     -6.313219   -0.655297   -1.641563
 H     -5.779242   -3.021836   -2.177026
 H     -3.575386   -3.936331   -1.569365
 H      1.875964    3.440633   -3.308542
 H      1.612887    1.917405   -2.458055
 H      0.238959    2.904101   -2.922518
 H     -0.686763   -2.456869   -0.975586
 H     -1.292963   -2.630710    0.650386
 H     -1.621035   -3.882367   -0.546632
