63

 Si    -0.809546    0.880378    1.677013
 O     -0.015651    1.990093    0.814031
 C      0.144735    2.319456   -0.523529
 C      1.312886    1.560038   -1.079145
 H     -0.735151    2.015085   -1.078684
 C      2.617013    1.941216   -0.809782
 C      1.084670    0.436978   -1.860680
 C      3.681565    1.223271   -1.329140
 H      2.806127    2.812268   -0.197224
 C      2.143785   -0.284612   -2.385016
 H      0.069490    0.133876   -2.071187
 C      3.446879    0.111027   -2.123495
 H      4.698013    1.541333   -1.120084
 H      1.951067   -1.148961   -3.012925
 H      4.280170   -0.443371   -2.543680
 C      0.260531    3.821366   -0.610530
 C     -1.003251    4.448701   -0.188420
 H      0.491826    4.135948   -1.635645
 H      1.063593    4.164367    0.042431
 C     -2.049645    4.924337    0.158592
 H     -2.966402    5.370623    0.462966
 Cl    -0.343128    1.630156    3.526651
 Cl    -2.799547    0.885112    2.099025
 O     -1.169848    0.062220    0.111662
 O      0.248424   -0.442819    1.958214
 C     -1.299979   -2.119810    0.534695
 C      0.157596   -2.110479    0.438949
 C      2.253704   -1.141030    0.977541
 C     -3.259325   -0.968363   -0.123952
 C     -4.019438   -2.100990    0.227759
 C     -2.014602   -3.277854    0.846282
 C     -3.372425   -3.240642    0.747122
 C      0.754083   -3.079154   -0.375426
 C      2.104806   -3.087705   -0.491874
 C      2.882062   -2.133144    0.192833
 H     -1.476140   -4.152285    1.186435
 H     -3.970075   -4.101434    1.027667
 H      0.121542   -3.789881   -0.888737
 H      2.603351   -3.826521   -1.110094
 C      4.289638   -2.182519    0.098700
 C      3.043344   -0.175210    1.647958
 N     -1.916097   -1.010718    0.162187
 N      0.871013   -1.189602    1.061365
 C     -3.865497    0.145312   -0.758639
 C     -5.422145   -2.082269    0.034679
 C     -6.012090   -0.993283   -0.521376
 C     -5.219619    0.102720   -0.935319
 C     -3.086263    1.311668   -1.280889
 H     -5.998610   -2.951867    0.327695
 H     -7.086360   -0.964331   -0.680568
 H     -5.707126    0.938132   -1.426110
 C      5.043944   -1.272149    0.766851
 C      4.405265   -0.275176    1.526840
 C      2.493859    0.941407    2.469718
 H      4.740269   -2.958684   -0.508077
 H      6.128664   -1.297607    0.714769
 H      5.019979    0.456388    2.039257
 H     -3.734005    1.933880   -1.893381
 H     -2.700407    1.915314   -0.470124
 H     -2.258165    0.974626   -1.894149
 H      1.768120    1.512799    1.915510
 H      2.023728    0.561500    3.368599
 H      3.304796    1.600876    2.763884
