63

 Si     0.698054   -1.261238    1.018735
 O     -0.898074   -0.992338    1.095244
 C     -2.036754   -1.678771    0.697048
 C     -2.348969   -1.250386   -0.710991
 H     -1.823343   -2.749679    0.694314
 C     -3.551176   -0.680320   -1.092964
 C     -1.359464   -1.431220   -1.667683
 C     -3.760680   -0.290846   -2.409357
 H     -4.343962   -0.539821   -0.371329
 C     -1.556854   -1.041721   -2.978365
 H     -0.432247   -1.894126   -1.378534
 C     -2.763650   -0.466072   -3.355429
 H     -4.712170    0.150276   -2.693005
 H     -0.770614   -1.197538   -3.711060
 H     -2.927373   -0.160975   -4.385236
 C     -3.120200   -1.412970    1.707237
 C     -2.660389   -1.741104    3.062887
 H     -4.009504   -2.011499    1.477481
 H     -3.408967   -0.366392    1.683644
 C     -2.261968   -2.004406    4.163880
 H     -1.928811   -2.246398    5.145404
 Cl     1.981504   -1.334556    2.568482
 Cl     0.563953   -3.277088    0.665734
 O      1.452913   -1.040986   -0.496460
 O      0.793294    0.510780    1.153782
 C      1.617446    1.116576   -1.142870
 C      0.200867    1.303822   -0.836482
 C     -1.293343    1.520182    0.985256
 C      3.583249   -0.206038   -0.978689
 C      4.340129    0.917331   -1.378718
 C      2.336124    2.220130   -1.614081
 C      3.687698    2.124073   -1.702803
 C     -0.721970    1.836785   -1.736364
 C     -1.958292    2.154531   -1.267952
 C     -2.265283    2.022813    0.101868
 H      1.800699    3.131374   -1.842057
 H      4.282319    2.973696   -2.021506
 H     -0.437459    1.965066   -2.771655
 H     -2.715294    2.545893   -1.937163
 C     -3.526212    2.410217    0.613468
 C     -1.521415    1.471020    2.381639
 N      2.220042   -0.020075   -0.839853
 N     -0.112663    1.116325    0.431250
 C      4.226115   -1.449664   -0.751491
 C      5.747102    0.824160   -1.478509
 C      6.366607   -0.354220   -1.206462
 C      5.592303   -1.480150   -0.859893
 C      3.511360   -2.724639   -0.432707
 H      6.304881    1.704123   -1.776295
 H      7.446943   -0.445990   -1.273852
 H      6.101445   -2.421053   -0.681352
 C     -3.764760    2.329028    1.948001
 C     -2.749062    1.878316    2.822136
 C     -0.486722    1.038182    3.369202
 H     -4.275861    2.781431   -0.075261
 H     -4.724826    2.630019    2.358434
 H     -2.953276    1.858889    3.886903
 H      4.223543   -3.544935   -0.451714
 H      3.068934   -2.680627    0.552846
 H      2.730385   -2.928245   -1.154863
 H      0.447356    1.568438    3.222066
 H     -0.845861    1.242977    4.374566
 H     -0.297797   -0.020372    3.281497
