63

 Si    -0.490534   -1.427585    0.202620
 O      0.998130   -0.812434    0.373641
 C      2.037277   -0.950820    1.283763
 C      3.286501   -1.134833    0.476364
 H      1.864055   -1.846172    1.884407
 C      4.420962   -0.353657    0.612531
 C      3.267234   -2.140541   -0.482151
 C      5.520025   -0.563400   -0.210211
 H      4.467512    0.422959    1.363657
 C      4.353199   -2.348751   -1.310803
 H      2.388353   -2.762540   -0.574295
 C      5.486372   -1.553745   -1.177938
 H      6.406436    0.052903   -0.089846
 H      4.321037   -3.136963   -2.057448
 H      6.345198   -1.715862   -1.823359
 C      2.040080    0.242856    2.205931
 C      0.718682    0.472769    2.803761
 H      2.768693    0.095410    3.011193
 H      2.329527    1.137546    1.663024
 C     -0.360801    0.673477    3.287426
 H     -1.311223    0.841158    3.730872
 Cl    -1.038506   -2.682805   -1.276204
 Cl    -0.350051   -2.805200    1.712248
 O     -1.797579   -0.675149    0.997753
 O     -0.664882   -0.111136   -0.988513
 C     -2.368565    1.340872    0.152794
 C     -0.964810    1.743821    0.197915
 C      1.105050    1.391237   -0.894362
 C     -3.999181   -0.381185    0.269223
 C     -4.935989    0.503322   -0.309407
 C     -3.297516    2.258880   -0.348299
 C     -4.561072    1.830636   -0.600738
 C     -0.507571    2.905412    0.821620
 C      0.790802    3.263652    0.628257
 C      1.618512    2.530828   -0.248541
 H     -2.968253    3.264818   -0.569271
 H     -5.296569    2.501916   -1.031311
 H     -1.181356    3.466149    1.455691
 H      1.199025    4.138016    1.124354
 C      2.953707    2.922930   -0.506320
 C      1.860395    0.689892   -1.863610
 N     -2.711744    0.095773    0.433771
 N     -0.164999    1.017776   -0.560292
 C     -4.401822   -1.683031    0.662581
 C     -6.253975    0.065387   -0.572447
 C     -6.621526   -1.202032   -0.248167
 C     -5.691005   -2.054123    0.380647
 C     -3.525671   -2.655471    1.387064
 H     -6.949695    0.759633   -1.028637
 H     -7.628356   -1.559087   -0.445451
 H     -6.014236   -3.048839    0.667781
 C      3.700583    2.220565   -1.396661
 C      3.136319    1.123011   -2.084274
 C      1.301624   -0.428739   -2.681841
 H      3.350576    3.791491    0.006301
 H      4.725080    2.511428   -1.609975
 H      3.739374    0.611751   -2.824877
 H     -4.124094   -3.505717    1.702478
 H     -2.736129   -3.014983    0.741621
 H     -3.076924   -2.203649    2.262907
 H      1.105190   -1.296286   -2.073609
 H      0.372826   -0.135146   -3.160147
 H      2.016292   -0.698391   -3.455192
