63

 Si    -0.780758    0.872436    1.454308
 O     -0.158403    1.934839    0.415306
 C      1.032831    2.611950    0.261421
 C      2.015587    1.720017   -0.449408
 H      1.429466    2.895190    1.241079
 C      1.538834    0.713960   -1.270893
 C      3.384626    1.908861   -0.326137
 C      2.414915   -0.100038   -1.968178
 H      0.475162    0.578009   -1.359051
 C      4.266333    1.097212   -1.022558
 H      3.765273    2.694606    0.317987
 C      3.783195    0.091990   -1.847835
 H      2.027499   -0.877715   -2.618323
 H      5.336612    1.254297   -0.922661
 H      4.474247   -0.536818   -2.400735
 C      0.744244    3.862092   -0.539465
 C     -0.257734    4.702761    0.134377
 H      1.661332    4.444451   -0.689280
 H      0.364612    3.573366   -1.521506
 C     -1.079322    5.368834    0.702375
 H     -1.796823    5.978434    1.198234
 Cl    -0.074937    1.664047    3.210996
 Cl    -2.720537    1.023139    2.019948
 O     -1.242556    0.044458   -0.070972
 O      0.077372   -0.580636    1.776615
 C     -1.853161   -2.028221    0.451030
 C     -0.420996   -2.322159    0.393674
 C      1.844330   -1.757949    0.819711
 C     -3.473401   -0.501609   -0.363956
 C     -4.484738   -1.425464   -0.041624
 C     -2.824985   -2.984628    0.753972
 C     -4.132533   -2.656864    0.550338
 C     -0.045965   -3.404891   -0.412269
 C      1.271293   -3.622244   -0.648600
 C      2.243402   -2.806117   -0.038182
 H     -2.518952   -3.939876    1.159967
 H     -4.920083   -3.356525    0.810094
 H     -0.821386   -4.009616   -0.861115
 H      1.591915   -4.427429   -1.301000
 C      3.614115   -3.062315   -0.261424
 C      2.827399   -1.015662    1.520312
 N     -2.196264   -0.839335   -0.009043
 N      0.481736   -1.530364    0.949313
 C     -3.761727    0.718949   -1.025680
 C     -5.831500   -1.093430   -0.324564
 C     -6.119810    0.092240   -0.921548
 C     -5.078082    0.980450   -1.282439
 C     -2.699570    1.672330   -1.487271
 H     -6.610045   -1.800560   -0.063195
 H     -7.148007    0.361194   -1.147634
 H     -5.337324    1.901116   -1.794020
 C      4.552818   -2.311743    0.369967
 C      4.141767   -1.306814    1.265317
 C      2.530423    0.024960    2.549227
 H      3.887163   -3.866041   -0.934780
 H      5.612274   -2.490916    0.211467
 H      4.903462   -0.742579    1.791115
 H     -3.163017    2.460556   -2.075912
 H     -2.172343    2.119788   -0.657013
 H     -1.969548    1.163053   -2.108374
 H      2.048249    0.881205    2.107138
 H      1.890343   -0.366926    3.330477
 H      3.461674    0.354695    3.000878
