63

 Si    -0.515080   -1.565891   -0.254043
 O      1.076767   -1.316064   -0.171045
 C      2.251559   -1.344180    0.548089
 C      2.205224   -0.302515    1.629770
 H      3.032886   -1.058156   -0.161241
 C      1.021166   -0.032257    2.290623
 C      3.341177    0.428279    1.951040
 C      0.956056    0.968253    3.245017
 H      0.146117   -0.611325    2.062633
 C      3.286145    1.428197    2.909033
 H      4.276964    0.219778    1.445359
 C      2.089160    1.706194    3.555319
 H      0.016108    1.166753    3.751400
 H      4.181705    1.994262    3.150144
 H      2.042988    2.492057    4.304102
 C      2.598791   -2.725131    1.049002
 C      2.611971   -3.674750   -0.074594
 H      3.592282   -2.700529    1.513546
 H      1.880565   -3.056883    1.795774
 C      2.606083   -4.415454   -1.019291
 H      2.610982   -5.095679   -1.837467
 Cl    -1.425615   -2.659139   -1.674712
 Cl    -0.599359   -2.916519    1.283229
 O     -1.579364   -0.547287    0.613237
 O     -0.459848   -0.231105   -1.433200
 C     -1.762873    1.538138   -0.224508
 C     -0.304997    1.631596   -0.229712
 C      1.594663    0.858343   -1.407426
 C     -3.708116    0.192033   -0.025167
 C     -4.460241    1.244337   -0.592716
 C     -2.497339    2.624900   -0.708703
 C     -3.829406    2.462240   -0.918247
 C      0.411372    2.660491    0.379333
 C      1.746005    2.742164    0.127123
 C      2.360596    1.861835   -0.785464
 H     -1.975152    3.539404   -0.954170
 H     -4.424717    3.265744   -1.338986
 H     -0.103601    3.344755    1.040211
 H      2.349982    3.505081    0.604585
 C      3.737237    1.969644   -1.095850
 C      2.155000    0.005375   -2.390019
 N     -2.345523    0.393809    0.085507
 N      0.289667    0.758564   -1.022492
 C     -4.358382   -0.989853    0.411929
 C     -5.848465    1.085401   -0.807238
 C     -6.459074   -0.073337   -0.445285
 C     -5.704967   -1.089748    0.176038
 C     -3.678843   -2.106762    1.139258
 H     -6.400494    1.902753   -1.255932
 H     -7.524187   -0.216499   -0.603831
 H     -6.217896   -1.990220    0.496195
 C      4.290143    1.125868   -2.004168
 C      3.485754    0.162038   -2.656579
 C      1.362969   -1.014052   -3.145408
 H      4.323409    2.735458   -0.602003
 H      5.344833    1.196336   -2.256046
 H      3.944918   -0.472193   -3.407235
 H     -4.430927   -2.797816    1.509920
 H     -3.015028   -2.647208    0.478541
 H     -3.104863   -1.736360    1.979487
 H      0.455725   -0.586845   -3.556301
 H      1.966255   -1.398600   -3.964647
 H      1.091131   -1.837723   -2.501719
