63

 Si    -0.122075   -0.743758    0.783934
 O      1.642988   -1.108322    0.320601
 C      2.157651   -2.082965   -0.211283
 C      3.592369   -2.282795   -0.306717
 H      1.522182   -2.862442   -0.641471
 C      4.459144   -1.446322    0.399463
 C      4.096515   -3.326101   -1.083335
 C      5.820627   -1.644231    0.319484
 H      4.042225   -0.661986    1.017383
 C      5.465064   -3.518280   -1.169982
 H      3.415727   -3.981753   -1.617567
 C      6.321490   -2.678371   -0.470820
 H      6.500227   -1.002461    0.871825
 H      5.865111   -4.324669   -1.777289
 H      7.396180   -2.832500   -0.534902
 C     -0.498320   -0.373041   -3.211513
 C     -0.609166   -0.931339   -2.034937
 H     -1.301878    0.221316   -3.632985
 H      0.395191   -0.519401   -3.812840
 C     -0.707779   -1.482974   -0.857109
 H     -1.131462   -2.483763   -0.839416
 Cl     0.674542    0.228139    2.470418
 Cl    -0.246444   -2.602019    1.763216
 O      0.120087    0.778707   -0.168635
 O     -1.701177   -0.120632    1.274209
 C     -1.538285    2.206748    0.251556
 C     -2.417813    1.213440   -0.366275
 C     -3.487857   -0.866124   -0.027895
 C      0.680147    2.834140    0.753046
 C      0.193237    3.950431    1.455528
 C     -2.057253    3.360006    0.847737
 C     -1.197372    4.188873    1.498694
 C     -3.110763    1.436805   -1.557065
 C     -3.888790    0.428680   -2.042999
 C     -4.107058   -0.741144   -1.284370
 H     -3.125550    3.529760    0.819331
 H     -1.564858    5.061012    2.028954
 H     -2.967322    2.371747   -2.082788
 H     -4.384825    0.530520   -3.002741
 C     -4.966756   -1.775812   -1.725609
 C     -3.851654   -1.889716    0.880006
 N     -0.247499    1.939106    0.278402
 N     -2.551488    0.080679    0.295356
 C      2.065467    2.669521    0.512456
 C      1.114956    4.834405    2.066195
 C      2.449164    4.621746    1.923454
 C      2.911818    3.557337    1.115433
 C      2.599436    1.648552   -0.441238
 H      0.732718    5.677439    2.629790
 H      3.168957    5.291673    2.385451
 H      3.978455    3.462530    0.943254
 C     -5.220427   -2.832537   -0.907636
 C     -4.693514   -2.858006    0.405644
 C     -3.466028   -1.847076    2.329682
 H     -5.418449   -1.697840   -2.707668
 H     -5.875910   -3.636118   -1.232024
 H     -5.000233   -3.656295    1.073352
 H      3.636818    1.880917   -0.672137
 H      2.543959    0.662511   -0.013858
 H      2.030255    1.649468   -1.364495
 H     -2.430708   -2.127093    2.473126
 H     -3.603273   -0.845112    2.726084
 H     -4.100718   -2.533211    2.886533
