63

 Si    -0.691993   -0.259338    1.613207
 O      0.821167    0.215933    1.183816
 C      1.552979    1.373923    1.260104
 C      1.537064    1.986135   -0.111490
 H      1.065775    2.059592    1.954705
 C      2.607960    1.948963   -0.986917
 C      0.344976    2.551939   -0.534485
 C      2.479315    2.440243   -2.279357
 H      3.560380    1.550671   -0.669575
 C      0.197870    3.022537   -1.824121
 H     -0.471201    2.618455    0.157343
 C      1.269225    2.962850   -2.707145
 H      3.331486    2.414684   -2.952712
 H     -0.747330    3.452562   -2.136784
 H      1.164590    3.340541   -3.720593
 C      2.924937    1.055649    1.788699
 C      2.873332    0.377575    3.087190
 H      3.512627    1.975451    1.891112
 H      3.449895    0.411591    1.090846
 C      2.845001   -0.187419    4.144758
 H      2.822781   -0.690885    5.081206
 Cl    -2.328466   -1.357583    2.168539
 Cl    -0.744730    0.903398    3.257864
 O     -1.345038    0.561743    0.275438
 O     -0.374907   -1.616075    0.609024
 C     -1.482182   -0.899032   -1.436053
 C     -0.018725   -0.913864   -1.448303
 C      1.792007   -1.597145   -0.096880
 C     -3.431099   -0.090149   -0.400179
 C     -4.186757   -1.095836   -1.009807
 C     -2.219725   -1.803981   -2.199449
 C     -3.550080   -1.951680   -1.927960
 C      0.813015   -0.599040   -2.516069
 C      2.156978   -0.770035   -2.340491
 C      2.676282   -1.270750   -1.129888
 H     -1.701260   -2.426027   -2.917233
 H     -4.132450   -2.716209   -2.432228
 H      0.387521   -0.221374   -3.436545
 H      2.846401   -0.525142   -3.140838
 C      4.067752   -1.449535   -0.906918
 C      2.254895   -2.115405    1.125480
 N     -2.078767   -0.129730   -0.542960
 N      0.482492   -1.384447   -0.327254
 C     -4.063219    0.933220    0.324270
 C     -5.568015   -1.188103   -0.687956
 C     -5.384110    0.820062    0.614362
 C     -6.138432   -0.286272    0.150909
 H     -6.149132   -1.991661   -1.127480
 C     -3.352183    2.248413    0.521080
 H     -5.877174    1.615620    1.158807
 H     -7.190233   -0.359425    0.411285
 C      4.513130   -1.927547    0.281369
 C      3.591969   -2.272512    1.299814
 C      1.322031   -2.589069    2.211321
 H      4.758186   -1.197414   -1.704801
 H      5.575392   -2.066914    0.460315
 H      3.962072   -2.675199    2.232482
 F      1.999643   -3.075555    3.221144
 F      0.522858   -3.507941    1.742652
 F      0.592027   -1.587152    2.692173
 F     -2.553871    2.249669    1.548935
 F     -4.237741    3.214561    0.671053
 F     -2.657193    2.489462   -0.578833
