63

 Si    -0.301243   -0.630251    1.401352
 O      1.067129    0.168695    0.983236
 C      1.596104    1.424883    0.843181
 C      0.581396    2.335380    0.216891
 H      2.427867    1.311475    0.140110
 C     -0.284312    3.110308    0.965854
 C      0.495420    2.385182   -1.164538
 C     -1.198035    3.943600    0.348539
 H     -0.247518    3.078827    2.043221
 C     -0.424706    3.204458   -1.791678
 H      1.180141    1.801854   -1.760028
 C     -1.268044    3.998512   -1.031991
 H     -1.858812    4.554330    0.954173
 H     -0.467287    3.243742   -2.875873
 H     -1.982899    4.656257   -1.515885
 C      2.163500    1.940734    2.139797
 C      3.101722    1.001465    2.768618
 H      2.684140    2.889550    1.960604
 H      1.364173    2.122443    2.852022
 C      3.857123    0.262747    3.337871
 H      4.521462   -0.377549    3.864597
 Cl    -1.669295   -2.057698    1.935697
 Cl    -0.515618    0.382583    3.129805
 O     -1.102034    0.073826    0.083160
 O      0.301005   -1.876977    0.386880
 C     -1.067975   -1.430058   -1.591772
 C      0.363173   -1.143824   -1.689567
 C      2.357650   -1.323808   -0.443110
 C     -3.083754   -0.921819   -0.496785
 C     -3.690973   -2.043726   -1.068347
 C     -1.669341   -2.466407   -2.303164
 C     -2.952172   -2.814118   -1.985255
 C      1.028243   -0.642930   -2.803645
 C      2.375335   -0.437619   -2.696355
 C      3.067311   -0.765205   -1.513972
 H     -1.080331   -3.016394   -3.025476
 H     -3.420151   -3.674131   -2.453595
 H      0.469254   -0.403891   -3.699625
 H      2.932339   -0.017218   -3.527780
 C      4.463372   -0.549341   -1.361021
 C      3.010511   -1.714321    0.737779
 N     -1.750375   -0.744851   -0.692000
 N      1.024505   -1.451406   -0.594901
 C     -3.841410   -0.000510    0.241956
 C     -5.034070   -2.336865   -0.706796
 C     -5.122580   -0.303208    0.568622
 C     -5.714281   -1.515232    0.132898
 H     -5.497662   -3.227382   -1.117469
 C     -3.302956    1.393738    0.429693
 H     -5.712719    0.416363    1.122585
 H     -6.737003   -1.741099    0.420138
 C      5.083438   -0.896401   -0.206865
 C      4.347166   -1.501904    0.839957
 C      2.300770   -2.449377    1.848095
 H      5.014043   -0.108066   -2.184931
 H      6.150266   -0.737291   -0.079483
 H      4.866269   -1.814759    1.734023
 F      1.382741   -1.689295    2.426366
 F      3.152641   -2.797722    2.783128
 F      1.726915   -3.521254    1.366846
 F     -2.498128    1.479719    1.446774
 F     -4.294661    2.244770    0.603401
 F     -2.666777    1.718465   -0.675961
