63

 Si    -0.714859   -1.106445    1.527863
 O     -0.244477    0.300864    2.137199
 C     -0.031117    1.624379    1.858033
 C      1.113393    1.766681    0.903107
 H     -0.895296    2.045286    1.375092
 C      2.428080    1.789063    1.331138
 C      0.842076    1.896774   -0.449480
 C      3.462509    1.943461    0.424163
 H      2.651758    1.697624    2.382920
 C      1.868359    2.068129   -1.361610
 H     -0.182140    1.891484   -0.782513
 C      3.184464    2.094144   -0.925205
 H      4.487944    1.968406    0.779057
 H      1.638973    2.202774   -2.413592
 H      3.992111    2.244401   -1.634442
 C      0.155683    2.319852    3.177728
 C     -1.094874    2.286118    3.948514
 H      0.454352    3.365397    3.035797
 H      0.935329    1.811278    3.743477
 C     -2.128580    2.257763    4.557186
 H     -3.035837    2.248063    5.111827
 Cl    -0.189298   -2.138038    3.194138
 Cl    -2.435637   -2.182461    1.357340
 O     -1.193394   -0.110661    0.136090
 O      0.479835   -1.772668    0.497619
 C     -1.191014   -1.410924   -1.653480
 C      0.254111   -1.204638   -1.686383
 C      2.386917   -1.172938   -0.683673
 C     -3.237893   -0.578011   -0.844580
 C     -3.923234   -1.425478   -1.726720
 C     -1.830669   -2.243650   -2.573909
 C     -3.191805   -2.276251   -2.577976
 C      0.786099   -0.873462   -2.937060
 C      2.124366   -0.709813   -3.063121
 C      2.951354   -0.881798   -1.939596
 H     -1.232119   -2.860541   -3.230393
 H     -3.727335   -2.940630   -3.247605
 H      0.109698   -0.758228   -3.772048
 H      2.569852   -0.456814   -4.018842
 C      4.355174   -0.771700   -2.090170
 C      3.268784   -1.338170    0.400458
 N     -1.875161   -0.667638   -0.806960
 N      1.009656   -1.307677   -0.601799
 C     -3.964456    0.299987   -0.020343
 C     -5.342626   -1.425309   -1.721997
 C     -5.321678    0.273973   -0.036873
 C     -6.028779   -0.609925   -0.883621
 H     -5.859222   -2.094197   -2.401623
 C     -3.267186    1.327534    0.827589
 H     -5.869035    0.957608    0.598217
 H     -7.114616   -0.609027   -0.870436
 C      5.181099   -0.956872   -1.032501
 C      4.614469   -1.241106    0.222740
 C      2.781855   -1.618162    1.794469
 H      4.744801   -0.543669   -3.075863
 H      6.259364   -0.885321   -1.137718
 H      5.260618   -1.383791    1.077453
 F      2.282538   -2.822836    1.840043
 F      1.901903   -0.706957    2.094858
 F      3.769460   -1.534170    2.662752
 F     -2.665939    0.765485    1.837974
 F     -4.125125    2.208745    1.293716
 F     -2.393584    1.964703    0.073573
