63

 Si    -0.452582   -0.130468    1.462336
 O      0.577231    0.692003    0.483198
 C      1.056603    1.962631    0.322675
 C      2.538607    1.913570    0.581438
 H      0.584152    2.622491    1.054934
 C      3.496480    2.247792   -0.360595
 C      2.956409    1.450477    1.820776
 C      4.847847    2.100221   -0.077518
 H      3.208740    2.637036   -1.326784
 C      4.296223    1.283632    2.105961
 H      2.216739    1.219961    2.566037
 C      5.252233    1.604726    1.150614
 H      5.585630    2.373329   -0.826538
 H      4.595709    0.905429    3.078374
 H      6.308893    1.478830    1.369508
 C      0.705582    2.444437   -1.062617
 C     -0.719614    2.340672   -1.390354
 H      1.007561    3.491077   -1.183950
 H      1.251434    1.863797   -1.800060
 C     -1.862214    2.266603   -1.747995
 H     -2.878046    2.232668   -2.052626
 Cl    -0.220831    1.137542    3.014554
 Cl    -1.370130   -1.567874    2.591592
 O     -1.761955    0.344833    0.496317
 O     -0.126857   -1.446815    0.406194
 C     -2.052763   -1.243320   -1.082053
 C     -0.745023   -0.878242   -1.629195
 C      1.546634   -0.940740   -1.063391
 C     -3.665973   -0.924333    0.599992
 C     -4.270520   -2.140226    0.261503
 C     -2.721798   -2.370163   -1.561157
 C     -3.779609   -2.853524   -0.847379
 C     -0.475162   -0.481876   -2.936409
 C      0.831471   -0.304566   -3.287272
 C      1.871600   -0.535196   -2.362354
 H     -2.327935   -2.879489   -2.430719
 H     -4.260749   -3.782313   -1.136454
 H     -1.293047   -0.316047   -3.625390
 H      1.088461    0.013826   -4.292475
 C      3.241431   -0.373133   -2.698138
 C      2.547579   -1.183990   -0.106849
 N     -2.495415   -0.596708   -0.016728
 N      0.236139   -1.088584   -0.780398
 C     -4.268623   -0.078495    1.546103
 C     -5.368664   -2.593016    1.041133
 C     -5.315434   -0.539351    2.277197
 C     -5.843651   -1.835320    2.061579
 H     -5.811345   -3.553577    0.800770
 C     -3.923453    1.390088    1.579826
 H     -5.785076    0.117098    2.998504
 H     -6.673139   -2.181072    2.671309
 C      4.203333   -0.616692   -1.774876
 C      3.846614   -1.031397   -0.471710
 C      2.249916   -1.725603    1.267878
 H      3.495686   -0.060936   -3.705414
 H      5.253697   -0.504943   -2.024824
 H      4.626559   -1.237961    0.246233
 F      1.659139   -2.884151    1.173259
 F      1.466485   -0.904110    1.960099
 F      3.354981   -1.844324    1.960794
 F     -2.857827    1.633116    2.283878
 F     -4.933930    2.069184    2.091836
 F     -3.744434    1.791488    0.335822
