63

 Si    -0.480106   -0.548372    1.352379
 O      0.574313    0.511605    0.674241
 C      1.067300    1.766636    0.902148
 C      2.543997    1.623257    1.156482
 H      0.587297    2.188698    1.788883
 C      3.521794    2.206991    0.369251
 C      2.935028    0.811067    2.211274
 C      4.866455    1.964263    0.616677
 H      3.255401    2.867786   -0.443277
 C      4.267854    0.549569    2.454883
 H      2.179774    0.382648    2.845125
 C      5.243949    1.124026    1.650474
 H      5.620181    2.435411   -0.007710
 H      4.546255   -0.101278    3.277799
 H      6.295254    0.924466    1.838137
 C      0.746001    2.639036   -0.285494
 C     -0.673344    2.654155   -0.652279
 H      1.057828    3.671210   -0.088650
 H      1.301436    2.293965   -1.152289
 C     -1.809154    2.702188   -1.035083
 H     -2.819128    2.771645   -1.352836
 Cl    -0.266854    0.201957    3.213073
 Cl    -1.430760   -2.242207    1.994161
 O     -1.767305    0.207458    0.549061
 O     -0.146443   -1.500897   -0.039058
 C     -2.043284   -0.843336   -1.430225
 C     -0.722770   -0.351539   -1.826644
 C      1.557614   -0.607842   -1.270066
 C     -3.684229   -1.009355    0.247095
 C     -4.293547   -2.063630   -0.442582
 C     -2.713855   -1.770086   -2.229219
 C     -3.789077   -2.426585   -1.704831
 C     -0.425898    0.407565   -2.955537
 C      0.888316    0.662547   -3.219444
 C      1.909513    0.156572   -2.387753
 H     -2.309189   -2.006669   -3.204386
 H     -4.273882   -3.222050   -2.261519
 H     -1.229764    0.779130   -3.577509
 H      1.166116    1.258195   -4.083074
 C      3.286552    0.391314   -2.640982
 C      2.538985   -1.134517   -0.412378
 N     -2.499850   -0.531288   -0.228919
 N      0.241008   -0.814409   -1.062228
 C     -4.296458   -0.469877    1.390704
 C     -5.409634   -2.709981    0.153451
 C     -5.360711   -1.110209    1.938558
 C     -5.896407   -2.278430    1.344220
 H     -5.856483   -3.551474   -0.364837
 C     -3.938461    0.919073    1.859633
 H     -5.837528   -0.687904    2.813809
 H     -6.739734   -2.776461    1.813386
 C      4.229476   -0.125538   -1.815879
 C      3.845706   -0.899432   -0.697278
 C      2.211751   -2.051925    0.737914
 H      3.561632    0.981812   -3.508359
 H      5.285102    0.040507   -2.006419
 H      4.610749   -1.317828   -0.060049
 F      1.613779   -3.123928    0.297713
 F      1.422729   -1.460491    1.629417
 F      3.303236   -2.383844    1.381540
 F     -2.884399    0.928721    2.620739
 F     -4.952293    1.432273    2.532846
 F     -3.731834    1.665632    0.791722
