63

 Si     0.596077   -0.886877   -1.087025
 O     -1.196685   -1.179231   -1.226955
 C     -1.909705   -2.152610   -1.066134
 C     -3.349391   -2.092667   -1.256468
 H     -1.477411   -3.105975   -0.752869
 C     -3.888899   -1.031899   -1.980933
 C     -4.174783   -3.068133   -0.705911
 C     -5.254333   -0.939996   -2.146398
 H     -3.216375   -0.308356   -2.421037
 C     -5.548092   -2.965164   -0.857211
 H     -3.742777   -3.896253   -0.152925
 C     -6.083164   -1.904893   -1.576030
 H     -5.683162   -0.125622   -2.722105
 H     -6.201587   -3.714514   -0.420543
 H     -7.160755   -1.830276   -1.701705
 C      1.549721   -1.315511    2.722313
 C      1.187253   -1.722048    1.535659
 H      0.804908   -1.069052    3.472533
 H      2.595499   -1.268698    3.004639
 C      0.823914   -2.085416    0.339622
 H      0.717778   -3.152322    0.175263
 Cl     0.235933    0.592142   -2.572353
 Cl     1.028956   -2.281025   -2.557344
 O      0.103936    0.213729    0.243306
 O      2.202822   -0.154764   -0.903417
 C      0.914372    2.213459   -0.282928
 C      2.155992    1.741282    0.330965
 C      3.824184    0.119743    0.690713
 C     -1.404494    1.830812   -0.248802
 C     -1.626816    2.982851   -0.999525
 C      0.740085    3.446250   -0.918656
 C     -0.512292    3.781295   -1.344597
 C      2.655321    2.540892    1.369317
 C      3.675348    2.077257    2.130464
 C      4.283583    0.850161    1.799673
 H      1.604371    4.068829   -1.109728
 H     -0.672796    4.692886   -1.910840
 H      2.167715    3.485353    1.568786
 H      4.043271    2.642903    2.979124
 C      5.371677    0.362758    2.566014
 C      4.554064   -1.016698    0.286480
 N     -0.124069    1.440734   -0.050487
 N      2.683006    0.557426    0.045665
 C     -2.460245    1.105598    0.323073
 C     -2.967951    3.291919   -1.346995
 C     -3.733252    1.440649   -0.011711
 C     -3.988601    2.510819   -0.903112
 H     -3.159436    4.164146   -1.963197
 C     -2.192803    0.208781    1.509529
 H     -4.561793    0.920454    0.449741
 H     -5.015326    2.746279   -1.166897
 C      5.998169   -0.787870    2.217527
 C      5.592659   -1.459555    1.046371
 C      4.276080   -1.772414   -0.992844
 H      5.685452    0.935366    3.431694
 H      6.827125   -1.176091    2.801664
 H      6.134828   -2.338333    0.727539
 F      4.143484   -0.945174   -1.996992
 F      3.210566   -2.502232   -0.816504
 F      5.289665   -2.579646   -1.265658
 F     -3.285362    0.132714    2.250964
 F     -1.231693    0.745992    2.231238
 F     -1.853768   -1.014163    1.186956
