75

 Si    -0.462350    0.697561    1.073426
 O      1.155034    0.690953    0.976607
 C      2.119601    1.671098    0.780659
 C      2.357121    1.775941   -0.699908
 H      1.730574    2.628757    1.130188
 C      3.589484    1.581745   -1.298641
 C      1.263616    2.085872   -1.497575
 C      3.728671    1.691977   -2.675934
 H      4.458025    1.349319   -0.697989
 C      1.392541    2.195114   -2.868597
 H      0.308354    2.257203   -1.031800
 C      2.631348    1.996151   -3.465403
 H      4.703972    1.541430   -3.130306
 H      0.526091    2.445503   -3.473435
 H      2.740798    2.083860   -4.542764
 C      3.318928    1.324019    1.618558
 C      2.943707    1.256298    3.037604
 H      4.100721    2.082882    1.497705
 H      3.729777    0.366164    1.312102
 C      2.610516    1.221856    4.189988
 H      2.334008    1.192465    5.217281
 Cl    -1.563945    0.021406    2.613289
 Cl    -0.650920    2.703611    1.446672
 O     -1.360818    0.866356   -0.364500
 O     -0.292725   -0.996104    0.582995
 C     -1.352541   -0.963505   -1.666066
 C      0.107125   -0.967893   -1.592551
 C      1.870203   -1.513636   -0.107520
 C     -3.426321   -0.159213   -0.828193
 C     -4.061778   -1.252342   -1.461150
 C     -1.970054   -1.991858   -2.380497
 C     -3.312785   -2.148673   -2.247647
 C      0.943989   -0.989073   -2.704579
 C      2.269644   -1.211923   -2.492891
 C      2.756072   -1.494567   -1.201831
 H     -1.357290   -2.665523   -2.963237
 H     -3.825423   -2.967239   -2.741619
 H      0.527120   -0.813118   -3.686817
 H      2.966403   -1.209144   -3.322530
 N     -2.048302   -0.109046   -0.935012
 N      0.579444   -1.160870   -0.374031
 C      2.300741   -1.913882    1.184189
 C      4.124124   -1.790184   -0.990348
 H      4.801257   -1.756145   -1.835425
 C      3.626076   -2.206157    1.319429
 C      4.551237   -2.124169    0.252232
 H      5.595419   -2.361481    0.436772
 C     -4.204715    0.809418   -0.139557
 C     -5.457539   -1.437561   -1.328922
 H     -5.915011   -2.292723   -1.812031
 C     -6.187748   -0.548356   -0.609725
 C     -5.548574    0.574270   -0.044614
 H      3.994631   -2.526839    2.283843
 C     -3.632222    2.098479    0.383226
 C     -3.352936    3.026792   -0.791177
 H     -2.881377    3.944625   -0.444970
 H     -2.686111    2.570001   -1.515339
 H     -4.276517    3.297479   -1.302387
 C     -4.499399    2.787341    1.424879
 H     -5.424203    3.181752    1.007215
 H     -4.748411    2.119642    2.249408
 H     -3.945040    3.629172    1.840310
 C      1.340750   -2.109104    2.329574
 C      2.023150   -2.248569    3.681692
 H      2.596255   -3.170703    3.762593
 H      2.681113   -1.408313    3.889946
 H      1.261572   -2.272653    4.461932
 C      0.467549   -3.326928    2.054489
 H     -0.279032   -3.442584    2.838915
 H     -0.061084   -3.242069    1.113298
 H      1.066839   -4.236750    2.029991
 H     -2.702176    1.866593    0.876100
 H      0.715298   -1.228832    2.381815
 H     -6.161490    1.296363    0.476293
 H     -7.260061   -0.671738   -0.487695
