75

 Si    -0.473640   -0.568515    1.422032
 O      0.617646    0.621307    1.150880
 C      0.577746    1.939760    0.760275
 C      1.864581    2.265697    0.066391
 H     -0.252899    2.109458    0.079209
 C      3.058691    1.948062    0.695863
 C      1.887956    2.891597   -1.169113
 C      4.268367    2.268086    0.107520
 H      3.029885    1.450119    1.655061
 C      3.100166    3.208113   -1.769307
 H      0.957605    3.147511   -1.664244
 C      4.290962    2.902116   -1.129840
 H      5.197331    2.026509    0.614533
 H      3.111295    3.706501   -2.734919
 H      5.239549    3.159702   -1.592779
 C      0.394100    2.811231    1.986567
 C     -0.751943    2.380938    2.798821
 H      0.266173    3.861273    1.698331
 H      1.285201    2.739792    2.611117
 C     -1.653073    1.993880    3.490603
 H     -2.451608    1.650770    4.102890
 Cl     0.488711   -1.086278    3.152902
 Cl    -2.287526   -1.231709    2.065043
 O     -1.298815    0.224485    0.050101
 O      0.059220   -1.795835    0.374496
 C     -1.307283   -1.151143   -1.668177
 C      0.131489   -0.880085   -1.660087
 C      2.166523   -1.302596   -0.519641
 C     -3.382768   -0.490321   -0.745740
 C     -4.012830   -1.476635   -1.531548
 C     -1.900876   -2.067454   -2.531772
 C     -3.245621   -2.264927   -2.412355
 C      0.774164   -0.209477   -2.692876
 C      2.117290    0.002226   -2.572710
 C      2.841322   -0.552330   -1.502700
 H     -1.283751   -2.620038   -3.228033
 H     -3.748535   -3.010804   -3.018829
 H      0.196543    0.150635   -3.533892
 H      2.653081    0.565266   -3.328429
 N     -2.014518   -0.473613   -0.782749
 N      0.801505   -1.315925   -0.609118
 C      2.876134   -2.059073    0.445769
 C      4.247867   -0.426039   -1.429979
 H      4.758005    0.159542   -2.183433
 C      4.230247   -1.879145    0.476685
 C      4.923070   -1.045537   -0.429872
 H      6.002758   -0.957940   -0.350488
 C     -4.137307    0.445473    0.009761
 C     -5.418702   -1.632008   -1.444732
 H     -5.894903   -2.410029   -2.029791
 C     -6.134753   -0.802244   -0.645874
 C     -5.486779    0.250329    0.045298
 H      4.814004   -2.441348    1.192871
 C     -3.498010    1.668624    0.622056
 C     -3.028083    2.595124   -0.493088
 H     -2.534200    3.472180   -0.076970
 H     -2.322386    2.105335   -1.155384
 H     -3.867746    2.944895   -1.092871
 C     -4.414807    2.415189    1.579321
 H     -5.270312    2.855539    1.069639
 H     -4.783898    1.767769    2.374199
 H     -3.861248    3.229040    2.046730
 C      2.215329   -3.162889    1.241419
 C      3.079343   -3.696175    2.373797
 H      3.963675   -4.218873    2.012257
 H      3.396372   -2.900181    3.046871
 H      2.499004   -4.409267    2.960492
 C      1.820478   -4.282975    0.284519
 H      1.324484   -5.087063    0.827732
 H      1.131319   -3.934776   -0.479027
 H      2.692455   -4.707368   -0.212284
 H     -2.635397    1.345949    1.192106
 H      1.318636   -2.766445    1.698239
 H     -6.102974    0.942159    0.602631
 H     -7.213090   -0.905118   -0.562381
