75

 Si    -0.087086   -1.000619    0.955880
 O      1.422828   -1.501397    1.346780
 C      2.577632   -1.981602    0.753164
 C      2.770466   -1.303422   -0.574379
 H      3.401926   -1.690473    1.413067
 C      1.981244   -1.631035   -1.664268
 C      3.656103   -0.246649   -0.682412
 C      2.047789   -0.894126   -2.829485
 H      1.291792   -2.456947   -1.591392
 C      3.735440    0.494000   -1.850701
 H      4.288410    0.009799    0.157373
 C      2.921545    0.179701   -2.925119
 H      1.426400   -1.168242   -3.675852
 H      4.436370    1.319282   -1.919519
 H      2.981603    0.756221   -3.843376
 C      2.542640   -3.489476    0.675995
 C      2.379513   -4.078203    2.014033
 H      3.472520   -3.863850    0.229981
 H      1.711521   -3.809961    0.051061
 C      2.242750   -4.543414    3.112191
 H      2.129186   -4.977280    4.076847
 Cl    -0.764694   -2.701347    0.117343
 Cl    -0.668176   -0.798937    2.866065
 O     -1.450310    0.008799    0.436771
 O      0.771834    0.110717   -0.014910
 C     -1.287944    0.085776   -1.808637
 C     -0.310319    1.163204   -1.684662
 C      1.451295    2.222295   -0.494827
 C     -3.090350   -1.079637   -0.792048
 C     -3.367404   -1.698156   -2.025904
 C     -1.593462   -0.451838   -3.062549
 C     -2.579765   -1.384164   -3.150532
 C     -0.319112    2.186635   -2.647122
 C      0.627162    3.155834   -2.584862
 C      1.547500    3.186789   -1.514148
 H     -1.003832   -0.152895   -3.916942
 H     -2.796478   -1.869376   -4.096220
 H     -1.065875    2.162067   -3.427921
 H      0.675283    3.930880   -3.342551
 N     -1.958387   -0.298872   -0.731577
 N      0.557282    1.189355   -0.691428
 C      2.260325    2.307716    0.666015
 C      2.553388    4.175895   -1.446767
 H      2.626299    4.902467   -2.247602
 C      3.224187    3.277397    0.670735
 C      3.404133    4.193307   -0.387440
 H      4.194945    4.935462   -0.320654
 C     -3.947196   -1.257025    0.325426
 C     -4.439166   -2.615925   -2.119797
 H     -4.628554   -3.102722   -3.069122
 C     -5.207670   -2.857835   -1.027638
 C     -4.969891   -2.148970    0.172028
 H      3.858889    3.376050    1.540483
 C     -3.827034   -0.411208    1.569485
 C     -4.134695    1.040377    1.219668
 H     -4.022574    1.674382    2.098494
 H     -3.464242    1.423180    0.457584
 H     -5.157193    1.152164    0.859673
 C     -4.707207   -0.882523    2.717728
 H     -5.768964   -0.774064    2.500839
 H     -4.511767   -1.922754    2.977938
 H     -4.493128   -0.279674    3.601205
 C      1.959389    1.528613    1.921598
 C      0.721585    2.163499    2.546441
 H      0.894971    3.217485    2.757511
 H     -0.141835    2.089173    1.892059
 H      0.467147    1.676891    3.484268
 C      3.106619    1.487121    2.917201
 H      2.847792    0.802905    3.725727
 H      4.026458    1.122663    2.460585
 H      3.309209    2.458359    3.365110
 H     -2.803120   -0.473734    1.917620
 H      1.749939    0.502090    1.668182
 H     -5.651412   -2.309132    0.995820
 H     -6.034465   -3.561066   -1.073612
