75

 Si    -0.326903   -0.192044   -0.094758
 O     -0.060090   -1.679160   -0.707159
 C     -0.608953   -2.916701   -1.005189
 C     -1.678420   -3.280602   -0.015762
 H      0.208031   -3.638781   -0.908434
 C     -2.908266   -2.639751   -0.021186
 C     -1.416747   -4.230442    0.959810
 C     -3.861981   -2.935740    0.935899
 H     -3.121186   -1.898780   -0.776582
 C     -2.368486   -4.534366    1.922100
 H     -0.460975   -4.741369    0.972427
 C     -3.593374   -3.884922    1.913578
 H     -4.821072   -2.426795    0.916577
 H     -2.150761   -5.281605    2.679698
 H     -4.341482   -4.120736    2.665042
 C     -1.084405   -2.922613   -2.438933
 C      0.007125   -2.587661   -3.368563
 H     -1.481303   -3.910902   -2.701665
 H     -1.881020   -2.191661   -2.564055
 C      0.897549   -2.313661   -4.126352
 H      1.666854   -2.088250   -4.824611
 Cl    -1.761293    0.321033   -1.425540
 Cl    -0.601118   -0.788670    1.818902
 O     -0.345781    1.426689    0.628706
 O      1.237200    0.226627   -0.642961
 C      1.083700    2.788703   -0.377179
 C      2.046816    2.026181    0.417506
 C      2.931117   -0.120341    0.908054
 C     -1.238608    3.215701   -0.580425
 C     -0.943838    4.187616   -1.557879
 C      1.421145    3.796386   -1.275238
 C      0.398053    4.447456   -1.902391
 C      2.794767    2.629250    1.429188
 C      3.494160    1.817381    2.271196
 C      3.574640    0.429006    2.034937
 H      2.463873    4.007177   -1.474480
 H      0.606140    5.204603   -2.651169
 H      2.734005    3.701128    1.563277
 H      4.019047    2.233115    3.125331
 N     -0.177027    2.482375   -0.125852
 N      2.084564    0.720902    0.228542
 C      3.178295   -1.453139    0.493576
 C      4.325634   -0.419666    2.881532
 H      4.793961    0.001553    3.763435
 C      3.909070   -2.224301    1.354117
 C      4.448948   -1.735073    2.565857
 H      5.012299   -2.409264    3.205093
 C     -2.557251    3.037453   -0.082538
 C     -2.007106    4.912235   -2.150702
 H     -1.778432    5.641415   -2.918963
 C     -3.279127    4.689323   -1.735295
 H     -4.109903    5.234983   -2.174073
 C     -3.533846    3.775791   -0.683983
 H     -4.552148    3.681780   -0.332683
 H      4.124885   -3.248732    1.083599
 C     -2.851437    2.181954    1.128483
 C     -2.301348    2.874549    2.369067
 H     -2.461781    2.255677    3.251177
 H     -1.233584    3.050301    2.286771
 H     -2.794045    3.831746    2.539052
 C     -4.327117    1.853749    1.295264
 H     -4.924543    2.731587    1.536070
 H     -4.739693    1.389946    0.399334
 H     -4.444693    1.146212    2.117254
 C      2.818717   -1.935570   -0.891209
 C      3.072040   -3.419232   -1.102020
 H      4.131130   -3.670748   -1.063496
 H      2.548980   -4.030494   -0.367487
 H      2.704833   -3.705093   -2.087204
 C      3.594018   -1.114616   -1.914217
 H      3.348501   -1.443109   -2.921893
 H      3.351364   -0.059367   -1.853748
 H      4.670161   -1.224389   -1.781847
 H     -2.334430    1.238938    1.009976
 H      1.761949   -1.772174   -1.042707
