75

 Si     0.267666   -0.643736   -0.718934
 O     -1.142490   -1.468373   -0.762099
 C     -1.679167   -2.642545   -0.264337
 C     -2.348413   -2.318964    1.044094
 H     -0.867986   -3.348972   -0.067320
 C     -3.687500   -2.549669    1.306180
 C     -1.562490   -1.735654    2.029619
 C     -4.236680   -2.197319    2.533095
 H     -4.318705   -3.016442    0.561655
 C     -2.100698   -1.376100    3.249468
 H     -0.516190   -1.576330    1.831803
 C     -3.447615   -1.605787    3.505566
 H     -5.288559   -2.389603    2.724838
 H     -1.469386   -0.927047    4.010315
 H     -3.877265   -1.330400    4.464517
 C     -2.567978   -3.231471   -1.328775
 C     -1.791549   -3.538997   -2.540351
 H     -3.040115   -4.154915   -0.973417
 H     -3.354233   -2.521398   -1.584663
 C     -1.141679   -3.788766   -3.518279
 H     -0.583110   -4.024569   -4.392061
 Cl     0.292462   -0.126895   -2.662903
 Cl     1.377750   -2.178440   -0.005374
 O     -0.547959    0.476537    0.290212
 O      1.647409    0.461226   -0.539414
 C      0.638729    2.318465    0.758458
 C      1.565963    1.431499    1.459016
 C      3.305337   -0.112788    1.003229
 C     -1.232280    2.475954   -0.688390
 C     -0.840903    3.793375   -1.004381
 C      0.956570    3.668023    0.593219
 C      0.251303    4.376943   -0.329973
 C      1.904271    1.523350    2.804644
 C      2.892663    0.699258    3.263455
 C      3.628179   -0.110469    2.375278
 H      1.799172    4.080937    1.131572
 H      0.516007    5.404956   -0.555099
 H      1.362439    2.207338    3.445079
 H      3.156678    0.691650    4.315888
 N     -0.379962    1.769785    0.127071
 N      2.181967    0.583335    0.649867
 C      4.120856   -0.774822    0.047232
 C      4.714559   -0.900155    2.827034
 H      4.943967   -0.917262    3.885984
 C      5.162035   -1.502440    0.543719
 C      5.449429   -1.600221    1.927131
 H      6.288706   -2.209771    2.250425
 C     -2.445822    1.936622   -1.185929
 C     -1.571549    4.521812   -1.971788
 H     -1.247366    5.524192   -2.225761
 C     -2.656138    3.951817   -2.557084
 H     -3.224580    4.484720   -3.314276
 C     -3.099958    2.680967   -2.127287
 H     -4.025003    2.303639   -2.540292
 H      5.818324   -2.015467   -0.145724
 C     -3.080390    0.713100   -0.575953
 C     -3.442604    1.039695    0.866497
 H     -3.884960    0.177454    1.352487
 H     -2.572343    1.321709    1.446425
 H     -4.162683    1.855407    0.918196
 C     -4.299366    0.216223   -1.333505
 H     -5.120020    0.931702   -1.321002
 H     -4.063787   -0.021026   -2.370607
 H     -4.663700   -0.695122   -0.862189
 C      3.928409   -0.581825   -1.439535
 C      4.684881   -1.595028   -2.284654
 H      5.764646   -1.474990   -2.211222
 H      4.430772   -2.618508   -2.009191
 H      4.414265   -1.459658   -3.332753
 C      4.325117    0.842131   -1.809870
 H      4.154892    1.019279   -2.871274
 H      3.741309    1.574641   -1.261883
 H      5.380153    1.025014   -1.606661
 H     -2.360377   -0.090276   -0.585853
 H      2.876673   -0.710533   -1.663207
