75

 Si     0.312984    0.007214   -1.242595
 O      0.277075    1.157619   -0.120532
 C     -0.237421    2.436293    0.013626
 C      0.652129    3.437569   -0.659138
 H     -1.229167    2.479749   -0.440119
 C      2.023130    3.239883   -0.648310
 C      0.125725    4.552471   -1.293515
 C      2.867754    4.139874   -1.274171
 H      2.425875    2.369526   -0.154451
 C      0.967670    5.462150   -1.916608
 H     -0.946707    4.712530   -1.307106
 C      2.339432    5.256345   -1.910517
 H      3.940640    3.972081   -1.264827
 H      0.548471    6.333350   -2.411971
 H      2.998741    5.966646   -2.401268
 C     -0.361918    2.685112    1.499702
 C     -1.179565    1.648236    2.151841
 H     -0.808276    3.667946    1.695007
 H      0.633105    2.672856    1.947310
 C     -1.836400    0.795142    2.683660
 H     -2.426468    0.074545    3.191565
 Cl     2.081473   -0.499418   -2.092474
 Cl    -0.312160    1.051127   -2.892511
 O      0.658057   -1.027801    0.168772
 O     -1.098032   -0.962855   -1.358608
 C      0.257948   -3.120161   -0.447186
 C     -1.113113   -2.803131   -0.049220
 C     -2.873787   -1.222247    0.156659
 C      2.482810   -2.450976    0.038881
 C      2.939209   -3.676094   -0.485880
 C      0.669518   -4.356070   -0.942516
 C      2.010527   -4.600297   -1.006159
 C     -1.704941   -3.667027    0.877630
 C     -2.836210   -3.262230    1.506894
 C     -3.427701   -2.027265    1.178474
 H     -0.073290   -5.068731   -1.276569
 H      2.379224   -5.531755   -1.422842
 H     -1.207649   -4.596809    1.115981
 H     -3.294109   -3.877295    2.274154
 N      1.141816   -2.210215   -0.069772
 N     -1.672614   -1.652076   -0.384430
 C     -3.557300   -0.046926   -0.256461
 C     -4.593973   -1.613066    1.861579
 H     -4.985839   -2.246641    2.648448
 C     -4.675477    0.306393    0.447371
 C     -5.194481   -0.445592    1.519584
 H     -6.086850   -0.101065    2.034425
 C      3.367720   -1.521514    0.648292
 C      4.327557   -3.955734   -0.471240
 H      4.676946   -4.892366   -0.889628
 C      5.183600   -3.055558    0.073235
 H      6.251932   -3.251698    0.099514
 C      4.689508   -1.857598    0.645149
 H      5.401672   -1.189429    1.109206
 H     -5.207919    1.199689    0.153204
 C      2.870591   -0.275470    1.344148
 C      2.138898   -0.667845    2.620635
 H      1.716636    0.211841    3.103257
 H      1.318638   -1.346348    2.419778
 H      2.813591   -1.146038    3.330636
 C      3.974151    0.727710    1.646023
 H      4.682405    0.354605    2.383861
 H      4.527423    1.006020    0.749166
 H      3.531781    1.636172    2.056285
 C     -3.178755    0.736469   -1.483001
 C     -3.757023    2.142636   -1.527481
 H     -4.833612    2.145030   -1.687027
 H     -3.546756    2.702973   -0.616988
 H     -3.305844    2.681495   -2.361199
 C     -3.595975   -0.054566   -2.716625
 H     -3.289368    0.465245   -3.622154
 H     -3.138458   -1.038126   -2.735089
 H     -4.678047   -0.179275   -2.750859
 H      2.165798    0.218315    0.687352
 H     -2.106958    0.844451   -1.490255
