75

 Si     0.453506    1.266953    0.209274
 O     -1.133865    1.112139    0.495122
 C     -1.932646    1.232220    1.625215
 C     -2.016076   -0.127056    2.261475
 H     -1.449705    1.908482    2.332373
 C     -3.202978   -0.803859    2.480845
 C     -0.821780   -0.723088    2.644187
 C     -3.198453   -2.060609    3.071607
 H     -4.146656   -0.356560    2.200575
 C     -0.807838   -1.973894    3.230323
 H      0.100922   -0.189636    2.492924
 C     -2.001936   -2.650724    3.445796
 H     -4.139149   -2.576883    3.241539
 H      0.136634   -2.418956    3.528903
 H     -1.998745   -3.633292    3.909400
 C     -3.240416    1.849105    1.212701
 C     -3.010670    3.169124    0.609517
 H     -3.896434    1.969444    2.082645
 H     -3.748450    1.212406    0.493839
 C     -2.793386    4.249025    0.133293
 H     -2.619769    5.211412   -0.286602
 Cl     1.306863    2.515419   -1.115437
 Cl     0.880801    2.322524    1.912951
 O      1.494103    0.013328    0.708331
 O      0.098462    0.210861   -1.167976
 C      1.353959   -1.843214   -0.547276
 C     -0.092946   -1.832120   -0.341501
 C     -2.042660   -0.699190   -1.067232
 C      3.432876   -0.698456   -0.417392
 C      3.967237   -1.646395   -1.320258
 C      1.887203   -2.846166   -1.359061
 C      3.177547   -2.723930   -1.765582
 C     -0.819458   -2.913134    0.149343
 C     -2.176913   -2.843512    0.083609
 C     -2.813611   -1.751574   -0.537405
 H      1.243766   -3.650089   -1.688600
 H      3.615841   -3.451254   -2.440681
 H     -0.294319   -3.755713    0.578098
 H     -2.787775   -3.646556    0.478258
 N      2.090512   -0.834299   -0.113466
 N     -0.696790   -0.776277   -0.856978
 C     -2.640308    0.354386   -1.806764
 C     -4.222788   -1.709464   -0.664467
 H     -4.808725   -2.515045   -0.238389
 C     -3.999905    0.328028   -1.911590
 C     -4.803493   -0.678767   -1.326604
 H     -5.882766   -0.629193   -1.442372
 C      4.270716    0.312810    0.124475
 C      5.305946   -1.532201   -1.761567
 H      5.683915   -2.263917   -2.465628
 C      6.082080   -0.520742   -1.297065
 C      5.554536    0.373308   -0.342812
 H     -4.495617    1.105124   -2.476531
 C      3.835497    1.227012    1.236831
 C      3.792861    0.436363    2.537679
 H      3.420825    1.060161    3.348304
 H      3.139006   -0.426538    2.463013
 H      4.787364    0.086817    2.814050
 C      4.692016    2.474082    1.388007
 H      5.696182    2.253091    1.745908
 H      4.771364    3.026259    0.451794
 H      4.223865    3.133441    2.119207
 C     -1.824861    1.395876   -2.529352
 C     -2.640924    2.587177   -3.007079
 H     -3.340002    2.319610   -3.797661
 H     -3.193487    3.049824   -2.192884
 H     -1.964568    3.338773   -3.415798
 C     -1.105128    0.747337   -3.705111
 H     -0.457496    1.470769   -4.198414
 H     -0.485107   -0.083437   -3.392344
 H     -1.818721    0.383496   -4.444002
 H      2.841949    1.574398    1.004502
 H     -1.092644    1.776011   -1.830649
 H      6.210449    1.136232    0.052378
 H      7.111166   -0.407092   -1.625760
