81

 Si    -0.541489   -0.469278    1.276174
 O      0.176829    0.960589    1.073871
 C      1.124447    1.778266    1.651613
 C      1.952797    2.370649    0.546766
 H      1.755040    1.200935    2.333102
 C      1.362729    2.567373   -0.690957
 C      3.262972    2.774897    0.752225
 C      2.072507    3.158464   -1.722233
 H      0.340247    2.254357   -0.831649
 C      3.978426    3.370960   -0.276576
 H      3.728147    2.628025    1.721264
 C      3.385516    3.563508   -1.515655
 H      1.597821    3.316789   -2.686277
 H      5.003866    3.687773   -0.107317
 H      3.944438    4.035143   -2.319290
 C      0.428912    2.880054    2.425227
 C     -0.477867    2.355991    3.456333
 H      1.172694    3.529213    2.902357
 H     -0.149355    3.488683    1.728235
 C     -1.225958    1.923264    4.289179
 H     -1.882242    1.541311    5.033852
 Cl     0.513090   -1.041856    2.938980
 Cl    -2.353058   -1.006098    1.983656
 O     -1.293303    0.102418   -0.248886
 O      0.092417   -1.750699    0.349773
 C     -1.296853   -1.507843   -1.762373
 C      0.126701   -1.168902   -1.810159
 C      2.146823   -1.182081   -0.559558
 C     -3.358068   -0.729898   -0.895622
 C     -3.968025   -1.907419   -1.374545
 C     -1.892141   -2.586051   -2.409207
 C     -3.211769   -2.818901   -2.139151
 C      0.730146   -0.528034   -2.889846
 C      1.986574   -0.032339   -2.696455
 C      2.713197   -0.322558   -1.522940
 H     -1.291981   -3.237848   -3.030882
 H     -3.705278   -3.701041   -2.533975
 H      0.163039   -0.358978   -3.795718
 H      2.457907    0.577059   -3.459947
 N     -1.997195   -0.703242   -0.984636
 N      0.799387   -1.394212   -0.699322
 C      2.930752   -1.766720    0.464664
 C      4.005586    0.196845   -1.302350
 H      4.433880    0.870954   -2.031582
 C      4.140812   -1.150369    0.672466
 C      4.664537   -0.143010   -0.163698
 H      5.641414    0.274626    0.060381
 C     -4.116546    0.345868   -0.359578
 C     -5.334208   -2.135896   -1.076985
 H     -5.799031   -3.055726   -1.412255
 C     -6.019265   -1.204227   -0.369032
 H     -7.059488   -1.364029   -0.099392
 C     -5.415181    0.040829   -0.063005
 H     -6.048951    0.797688    0.375935
 H      4.783132   -1.521696    1.458470
 C     -3.633459    1.800990   -0.305128
 C     -2.897256    2.134213    0.985678
 H     -3.474260    1.839341    1.856803
 H     -1.933157    1.667165    1.044325
 H     -2.742255    3.208650    1.049661
 C     -2.769486    2.111393   -1.525607
 H     -3.288654    1.870961   -2.451517
 H     -2.541616    3.173997   -1.555581
 H     -1.828096    1.592368   -1.510010
 C     -4.848154    2.741112   -0.386690
 H     -5.479789    2.530604   -1.247432
 H     -5.465280    2.706480    0.507412
 H     -4.503697    3.768736   -0.484942
 C      2.767440   -3.181829    1.059708
 C      3.795750   -4.024820    0.275620
 H      3.572660   -4.038248   -0.790204
 H      4.812143   -3.659138    0.396961
 H      3.783157   -5.056790    0.622288
 C      3.130543   -3.200448    2.545568
 H      4.158611   -2.903111    2.731922
 H      2.477936   -2.549051    3.116867
 H      3.019770   -4.210138    2.937053
 C      1.424647   -3.876052    0.894727
 H      1.550331   -4.923693    1.161615
 H      0.665603   -3.469418    1.544091
 H      1.067035   -3.856852   -0.126655
