81

 Si     0.348194    0.654154   -0.524946
 O     -1.120345    0.655981    0.146144
 C     -2.050542    1.246901    0.977231
 C     -3.041753    2.032860    0.175154
 H     -2.585525    0.422360    1.448791
 C     -2.618984    2.813893   -0.887464
 C     -4.397097    1.957246    0.467202
 C     -3.535876    3.504084   -1.661736
 H     -1.565586    2.878982   -1.108414
 C     -5.320588    2.650012   -0.301298
 H     -4.738583    1.358360    1.303327
 C     -4.891431    3.422269   -1.371295
 H     -3.189084    4.109850   -2.493844
 H     -6.378543    2.586263   -0.062600
 H     -5.612641    3.964613   -1.976235
 C     -1.406659    2.041865    2.087115
 C     -0.478662    1.203033    2.863024
 H     -2.187142    2.416857    2.760181
 H     -0.864207    2.893584    1.683472
 C      0.267807    0.512405    3.500746
 H      0.942262   -0.060916    4.086723
 Cl     1.017033    0.623444   -2.437443
 Cl     0.768140    2.633649   -0.213343
 O      1.549064    0.162151    0.563708
 O     -0.011206   -1.049359   -0.814177
 C      1.896874   -2.033088    0.292847
 C      0.613868   -2.154902    0.986063
 C     -1.699219   -1.812155    0.612095
 C      3.497684   -0.479009   -0.519418
 C      3.952901   -1.469280   -1.414467
 C      2.502751   -3.098033   -0.370851
 C      3.461663   -2.786618   -1.289927
 C      0.419709   -2.647229    2.268191
 C     -0.845456   -2.550631    2.774686
 C     -1.920110   -2.126778    1.970139
 H      2.118679   -4.100237   -0.234915
 H      3.870723   -3.556695   -1.936420
 H      1.262560   -3.012251    2.840584
 H     -1.047352   -2.824853    3.805005
 N      2.351710   -0.803855    0.162848
 N     -0.389181   -1.698357    0.258158
 C     -2.778361   -1.629461   -0.291629
 C     -3.230146   -2.023246    2.497459
 H     -3.390882   -2.236132    3.547932
 C     -4.008896   -1.508501    0.290448
 C     -4.244526   -1.656693    1.677260
 H     -5.256876   -1.547095    2.055737
 C      4.162940    0.761977   -0.388396
 C      4.893091   -1.115123   -2.406461
 H      5.223669   -1.867496   -3.112882
 C      5.340576    0.168140   -2.460944
 H      6.030079    0.485985   -3.237757
 C      5.010860    1.066792   -1.424885
 H      5.526462    2.016948   -1.409996
 H     -4.871492   -1.337622   -0.336044
 C      4.290503    1.612235    0.888227
 C      4.095379    3.094544    0.572176
 H      4.828369    3.465629   -0.139204
 H      3.106049    3.282106    0.169772
 H      4.206193    3.684908    1.480275
 C      3.394726    1.237435    2.058612
 H      3.413072    0.174734    2.269212
 H      3.766538    1.738222    2.949980
 H      2.373601    1.549861    1.921747
 C      5.741235    1.377736    1.359646
 H      5.920805    0.329571    1.594479
 H      6.475666    1.682532    0.618929
 H      5.942689    1.951568    2.262656
 C     -2.674237   -1.722565   -1.816584
 C     -4.018256   -2.193942   -2.399288
 H     -4.364128   -3.121400   -1.947318
 H     -4.805200   -1.450911   -2.301899
 H     -3.900815   -2.379257   -3.465188
 C     -2.374309   -0.365314   -2.429525
 H     -3.119635    0.365948   -2.138501
 H     -1.414038    0.009114   -2.137081
 H     -2.384453   -0.433414   -3.515215
 C     -1.650610   -2.779145   -2.224319
 H     -1.675472   -2.916388   -3.302561
 H     -0.642803   -2.510243   -1.969096
 H     -1.883216   -3.742606   -1.774415
