81

 Si    -0.147111   -0.372440   -0.454560
 O     -1.564906   -1.024688    0.013886
 C     -2.249807   -1.986663    0.712728
 C     -2.858576   -2.992739   -0.226219
 H     -3.060707   -1.474230    1.246131
 C     -2.447589   -3.048780   -1.545625
 C     -3.844380   -3.867313    0.217630
 C     -3.006891   -3.968100   -2.419830
 H     -1.691128   -2.364337   -1.889394
 C     -4.404934   -4.790314   -0.650323
 H     -4.180099   -3.826352    1.248133
 C     -3.985901   -4.843845   -1.973566
 H     -2.674312   -3.998095   -3.453284
 H     -5.173450   -5.469662   -0.292348
 H     -4.424428   -5.567033   -2.655276
 C     -1.373054   -2.659438    1.749415
 C     -0.792165   -1.690364    2.693749
 H     -1.972303   -3.374325    2.323771
 H     -0.570682   -3.208136    1.261396
 C     -0.351796   -0.903238    3.486410
 H      0.011579   -0.225105    4.216605
 Cl    -0.682884    0.436687   -2.207065
 Cl     0.799030   -2.161582   -0.590951
 O     -0.498536    0.771492    0.772928
 O      1.418492    0.444265   -0.528150
 C      1.147986    2.211394    1.216324
 C      1.925755    1.026251    1.573136
 C      3.136063   -0.722144    0.532484
 C     -0.845545    2.992434    0.197220
 C     -0.147983    4.164153   -0.172528
 C      1.772316    3.457063    1.102402
 C      1.146951    4.395345    0.341914
 C      2.439364    0.723534    2.826223
 C      3.136577   -0.448390    2.947534
 C      3.499348   -1.194228    1.810005
 H      2.767256    3.591535    1.505596
 H      1.638600    5.334728    0.110699
 H      2.211291    1.364470    3.667519
 H      3.459809   -0.796046    3.923432
 N     -0.069722    2.007344    0.762684
 N      2.183627    0.257721    0.524906
 C      3.739344   -1.223228   -0.649509
 C      4.251809   -2.390805    1.903951
 H      4.498099   -2.781809    2.884238
 C      4.427261   -2.394006   -0.491071
 C      4.640753   -3.014983    0.764175
 H      5.197319   -3.947085    0.802140
 C     -2.231331    2.857458   -0.065997
 C     -0.754487    5.082956   -1.055574
 H     -0.205086    5.968485   -1.352809
 C     -1.996849    4.812379   -1.536226
 H     -2.472525    5.468119   -2.259933
 C     -2.725903    3.730179   -1.003096
 H     -3.758986    3.634270   -1.304455
 H      4.891943   -2.852892   -1.351940
 C     -3.255236    2.011506    0.707654
 C     -3.809485    0.921740   -0.200798
 H     -4.254432    1.346883   -1.097291
 H     -3.040701    0.227396   -0.495882
 H     -4.591394    0.365234    0.311457
 C     -2.742644    1.435077    2.019892
 H     -2.222388    2.184061    2.610027
 H     -3.590031    1.106117    2.616244
 H     -2.102164    0.585976    1.893727
 C     -4.404019    2.962011    1.106883
 H     -4.045986    3.796467    1.707230
 H     -4.942549    3.367757    0.256263
 H     -5.136384    2.423167    1.704908
 C      3.827810   -0.443157   -1.966765
 C      5.138786   -0.815226   -2.679874
 H      6.010509   -0.678991   -2.042601
 H      5.141613   -1.838114   -3.046747
 H      5.272698   -0.175582   -3.550180
 C      2.682412   -0.772078   -2.914261
 H      2.619873   -1.841777   -3.097265
 H      1.730638   -0.439905   -2.537080
 H      2.847889   -0.284332   -3.873399
 C      3.899847    1.058594   -1.697167
 H      4.119715    1.586151   -2.621994
 H      2.973524    1.460017   -1.327221
 H      4.695586    1.301147   -0.995394
