81

 Si     0.243546   -0.671439   -0.780939
 O     -1.475900   -1.339189   -0.713558
 C     -1.920101   -2.478138   -0.702985
 C     -3.319821   -2.785484   -0.943503
 H     -1.249161   -3.322161   -0.515372
 C     -4.167722   -1.785924   -1.423818
 C     -3.802994   -4.073025   -0.718799
 C     -5.494548   -2.068575   -1.663642
 H     -3.756620   -0.803587   -1.615310
 C     -5.139734   -4.353793   -0.951119
 H     -3.133194   -4.848661   -0.360198
 C     -5.979707   -3.353746   -1.420591
 H     -6.159290   -1.299232   -2.044243
 H     -5.525890   -5.352814   -0.772181
 H     -7.027648   -3.576171   -1.607924
 C      0.443408   -0.760601    3.272735
 C      0.573706   -1.169551    2.038648
 H      1.250204   -0.249565    3.785219
 H     -0.469695   -0.954271    3.828240
 C      0.706850   -1.581101    0.808648
 H      1.129182   -2.577584    0.697947
 Cl    -0.477401    0.403526   -2.453467
 Cl     0.898522   -2.259194   -1.989598
 O     -0.338913    0.618508    0.344535
 O      1.733313    0.230536   -0.959177
 C      0.824722    2.458382   -0.154771
 C      1.896228    1.802628    0.597980
 C      3.356798   -0.060936    0.669142
 C     -1.510930    2.410678   -0.493450
 C     -1.383994    3.433419   -1.445611
 C      0.967469    3.610013   -0.925571
 C     -0.117866    4.023423   -1.644852
 C      2.308809    2.251107    1.853798
 C      3.089103    1.411333    2.589412
 C      3.599445    0.219947    2.029509
 H      1.936536    4.086310   -0.998146
 H     -0.028913    4.844762   -2.348532
 H      1.920097    3.184008    2.240321
 H      3.339470    1.652038    3.617426
 N     -0.343558    1.853719   -0.061357
 N      2.354680    0.675813    0.092228
 C      4.083153   -1.066796   -0.018974
 C      4.339312   -0.706646    2.798360
 H      4.497813   -0.509973    3.852163
 C      4.720978   -1.967011    0.796322
 C      4.809152   -1.832395    2.199657
 H      5.342559   -2.586831    2.771084
 C     -2.769795    1.985534   -0.000264
 C     -2.541056    3.832430   -2.157898
 H     -2.452428    4.593677   -2.924360
 C     -3.729197    3.241984   -1.870865
 H     -4.626828    3.507474   -2.422186
 C     -3.840333    2.370783   -0.757545
 H     -4.836615    2.073269   -0.460682
 H      5.268617   -2.781028    0.342575
 C     -2.960781    1.422491    1.416219
 C     -2.920613   -0.094195    1.481138
 H     -3.626640   -0.537706    0.789308
 H     -1.939138   -0.469117    1.263466
 H     -3.192776   -0.427745    2.480989
 C     -1.903633    2.004022    2.353030
 H     -1.865229    3.089462    2.295138
 H     -2.144407    1.750870    3.382735
 H     -0.923871    1.603879    2.157010
 C     -4.328585    1.877498    1.950494
 H     -4.453995    2.956961    1.896555
 H     -5.157857    1.412035    1.423672
 H     -4.425660    1.593149    2.996810
 C      4.503704   -1.059400   -1.502368
 C      6.002463   -0.690924   -1.465068
 H      6.160126    0.295251   -1.030842
 H      6.594594   -1.402930   -0.896165
 H      6.411733   -0.670002   -2.473706
 C      4.339886   -2.449655   -2.115872
 H      4.937098   -3.202552   -1.608261
 H      3.301884   -2.763398   -2.097027
 H      4.665031   -2.435250   -3.154761
 C      3.837630   -0.044701   -2.419708
 H      4.410939    0.005018   -3.343506
 H      2.828715   -0.317124   -2.682609
 H      3.835560    0.954187   -2.001137
