81

 Si    -0.477143   -0.201333    1.368989
 O      0.197825    1.165229    0.841022
 C      1.147655    2.099924    1.193811
 C      1.916609    2.461468   -0.045440
 H      1.818694    1.687456    1.952067
 C      1.272702    2.386986   -1.269660
 C      3.223949    2.919252    0.013348
 C      1.926061    2.760776   -2.431589
 H      0.253356    2.035638   -1.296919
 C      3.882800    3.298956   -1.147414
 H      3.730898    2.985119    0.970252
 C      3.236097    3.220103   -2.371944
 H      1.409484    2.707144   -3.385552
 H      4.906174    3.659940   -1.093162
 H      3.750800    3.522278   -3.279924
 C      0.457142    3.328139    1.751466
 C     -0.394754    3.016925    2.907944
 H      1.203564    4.073822    2.049918
 H     -0.163011    3.769081    0.969412
 C     -1.098179    2.755810    3.844714
 H     -1.714805    2.527376    4.680607
 Cl     0.657828   -0.397199    3.065497
 Cl    -2.244597   -0.607043    2.253414
 O     -1.305055    0.028821   -0.205951
 O      0.149530   -1.637265    0.700731
 C     -1.331376   -1.861449   -1.350452
 C      0.080308   -1.518219   -1.532169
 C      2.150148   -1.239385   -0.399353
 C     -3.373712   -0.951904   -0.571700
 C     -3.973738   -2.212638   -0.767953
 C     -1.926019   -3.059852   -1.731914
 C     -3.227343   -3.251715   -1.360008
 C      0.622889   -1.107975   -2.747877
 C      1.873863   -0.563989   -2.719192
 C      2.655235   -0.591774   -1.545290
 H     -1.336073   -3.817521   -2.231311
 H     -3.714857   -4.204263   -1.540508
 H      0.015029   -1.140679   -3.642429
 H      2.298371   -0.120582   -3.613407
 N     -2.018658   -0.923360   -0.725624
 N      0.803577   -1.496204   -0.430549
 C      2.989759   -1.585325    0.687266
 C      3.942805   -0.018641   -1.496877
 H      4.324067    0.494505   -2.369211
 C      4.192322   -0.921374    0.706676
 C      4.656538   -0.103331   -0.343764
 H      5.631528    0.366418   -0.256346
 C     -4.135876    0.200028   -0.236808
 C     -5.320636   -2.395268   -0.368244
 H     -5.775935   -3.371907   -0.484131
 C     -5.998898   -1.347304    0.161065
 H     -7.023028   -1.463481    0.504522
 C     -5.413507   -0.056603    0.174549
 H     -6.047256    0.765207    0.474813
 H      4.875417   -1.110801    1.522610
 C     -3.686779    1.641938   -0.506779
 C     -2.906731    2.247449    0.652611
 H     -3.440400    2.131489    1.590938
 H     -1.930003    1.817541    0.763089
 H     -2.775209    3.313876    0.485411
 C     -2.881389    1.704993   -1.802845
 H     -3.431981    1.269141   -2.634422
 H     -2.681219    2.741560   -2.062502
 H     -1.927621    1.215372   -1.722363
 C     -4.926387    2.525749   -0.726347
 H     -5.586990    2.131585   -1.496015
 H     -5.505678    2.667731    0.182339
 H     -4.611252    3.515851   -1.049936
 C      2.885576   -2.846972    1.570955
 C      3.901037   -3.819658    0.934054
 H      3.634329   -4.059661   -0.094147
 H      4.912288   -3.421137    0.929871
 H      3.928068   -4.756111    1.488694
 C      3.309804   -2.548688    3.010029
 H      4.337128   -2.203331    3.083634
 H      2.665677   -1.802129    3.462082
 H      3.239858   -3.455603    3.608046
 C      1.554552   -3.580919    1.615063
 H      1.716708   -4.547567    2.088214
 H      0.812936   -3.059274    2.199047
 H      1.155108   -3.781239    0.629254
