81

 Si    -0.548891    0.177356    1.477122
 O      0.718074    1.168857    0.426557
 C      1.398876    2.129098    0.735469
 C      2.230433    2.853111   -0.224178
 H      1.399117    2.488834    1.765288
 C      1.829648    2.925501   -1.554378
 C      3.404338    3.472082    0.194232
 C      2.612788    3.594390   -2.473646
 H      0.890470    2.476513   -1.843317
 C      4.202382    4.122555   -0.732949
 H      3.697173    3.428721    1.238253
 C      3.806340    4.182261   -2.062590
 H      2.297812    3.668819   -3.510224
 H      5.129376    4.592539   -0.417656
 H      4.427899    4.703055   -2.786929
 C      3.261619    0.704011    2.868441
 C      2.012766    0.313347    2.831650
 H      4.073022    0.042970    2.587215
 H      3.521504    1.694228    3.235129
 C      0.758796   -0.036581    2.805793
 H      0.380370   -0.475533    3.726992
 Cl    -1.992427   -1.091068    2.251622
 Cl    -1.260837    1.980956    2.266894
 O     -1.448235    0.562422    0.002560
 O      0.040999   -1.251231    0.544180
 C     -1.343448   -1.048146   -1.537206
 C      0.082411   -0.737011   -1.619979
 C      2.106918   -1.123459   -0.467346
 C     -3.406434   -0.554305   -0.492293
 C     -3.859341   -1.843930   -0.836779
 C     -1.857910   -2.204916   -2.130193
 C     -3.072876   -2.640704   -1.696408
 C      0.749501   -0.213620   -2.725843
 C      2.082756    0.044220   -2.589847
 C      2.791710   -0.390409   -1.450123
 H     -1.237885   -2.772593   -2.811049
 H     -3.461850   -3.600650   -2.020126
 H      0.188883    0.039049   -3.616732
 H      2.627962    0.547861   -3.380291
 N     -2.069609   -0.326261   -0.710148
 N      0.745529   -1.059356   -0.526906
 C      2.783733   -1.918893    0.492568
 C      4.177501   -0.161032   -1.271877
 H      4.709530    0.447925   -1.993011
 C      4.114314   -1.634161    0.628919
 C      4.802224   -0.711486   -0.199239
 H      5.859168   -0.533030   -0.021379
 C     -4.280749    0.403561    0.074865
 C     -5.094762   -2.295633   -0.322966
 H     -5.429217   -3.298580   -0.560546
 C     -5.820304   -1.465856    0.472349
 H     -6.753839   -1.796332    0.918758
 C     -5.430800   -0.116559    0.611514
 H     -6.128573    0.554011    1.093095
 H      4.702143   -2.180483    1.353360
 C     -4.237455    1.926635   -0.130608
 C     -4.436784    2.648426    1.200585
 H     -5.393180    2.407736    1.657272
 H     -3.650343    2.397570    1.903086
 H     -4.419470    3.726362    1.047581
 C     -3.009361    2.489084   -0.828883
 H     -2.764059    1.943164   -1.732724
 H     -3.222788    3.513038   -1.129685
 H     -2.146483    2.513154   -0.187371
 C     -5.433014    2.229516   -1.058577
 H     -5.332205    1.723562   -2.017600
 H     -6.384684    1.933882   -0.625905
 H     -5.493788    3.297902   -1.259702
 C      2.181971   -3.196109    1.103499
 C      3.315251   -4.211998    1.327188
 H      3.894894   -4.393191    0.423991
 H      3.998473   -3.908270    2.116288
 H      2.892001   -5.166280    1.634837
 C      1.489991   -2.979130    2.441426
 H      2.145161   -2.484430    3.152677
 H      0.586000   -2.401441    2.340559
 H      1.218927   -3.943874    2.867657
 C      1.207229   -3.836551    0.116038
 H      0.919035   -4.821764    0.474444
 H      0.298807   -3.268435    0.012900
 H      1.655773   -3.974993   -0.865641
