81

 Si    -0.611134    0.907656    0.705242
 O      0.967652    1.222540    0.504578
 C      1.671661    2.204405   -0.183550
 C      2.164956    1.584010   -1.459737
 H      0.986452    3.011702   -0.448232
 C      3.486146    1.594731   -1.869410
 C      1.213613    0.982446   -2.272375
 C      3.854259    1.006646   -3.072961
 H      4.244366    2.067707   -1.260448
 C      1.571346    0.390119   -3.466959
 H      0.183956    0.991415   -1.964262
 C      2.901229    0.397860   -3.871892
 H      4.894972    1.028041   -3.383743
 H      0.811244   -0.069209   -4.091571
 H      3.189612   -0.060872   -4.813610
 C      2.726068    2.774513    0.726041
 C      2.109922    3.446088    1.879826
 H      3.335408    3.508797    0.187146
 H      3.382508    1.981320    1.078635
 C      1.587768    4.000136    2.807690
 H      1.137558    4.496586    3.634346
 Cl    -1.323003    2.726311    0.090804
 Cl    -1.808725    0.759689    2.330215
 O     -0.018103   -0.675036    1.214330
 O     -1.296421    0.134561   -0.644831
 C      0.144309   -1.956966   -0.571476
 C     -1.288036   -2.075443   -0.296849
 C     -3.324212   -0.865415   -0.126897
 C      2.132873   -1.169026    0.441945
 C      2.828256   -1.552744   -0.725295
 C      0.810940   -2.487666   -1.664643
 C      2.145941   -2.212189   -1.762892
 C     -1.853347   -3.222987    0.256296
 C     -3.084811   -3.090079    0.828128
 C     -3.831354   -1.900723    0.685333
 H      0.262013   -3.037492   -2.418120
 H      2.708855   -2.529567   -2.633341
 H     -1.264255   -4.127539    0.327280
 H     -3.515952   -3.908806    1.395703
 N      0.777659   -1.271343    0.364870
 N     -1.985439   -0.964723   -0.413826
 C     -4.142854    0.203193   -0.559902
 C     -5.076863   -1.721027    1.325310
 H     -5.455917   -2.503870    1.971741
 C     -5.307311    0.354628    0.152556
 C     -5.756630   -0.559531    1.128159
 H     -6.696342   -0.369594    1.638765
 C      2.824538   -0.757149    1.611309
 C      4.216314   -1.294929   -0.818137
 H      4.740768   -1.573098   -1.723344
 C      4.848029   -0.699623    0.221111
 H      5.907030   -0.463349    0.170982
 C      4.150644   -0.478339    1.431437
 H      4.732934   -0.131428    2.272693
 H     -5.966738    1.172978   -0.100731
 C      2.252240   -0.816714    3.032846
 C      1.532720    0.466279    3.406953
 H      2.196769    1.319601    3.342514
 H      0.690010    0.661225    2.776328
 H      1.171627    0.407817    4.431178
 C      1.357367   -2.044307    3.189519
 H      1.886555   -2.953211    2.909413
 H      1.065071   -2.154319    4.230892
 H      0.450651   -1.979316    2.617891
 C      3.395632   -1.000172    4.046068
 H      4.017780   -1.863780    3.819961
 H      4.037047   -0.126199    4.123053
 H      2.972689   -1.158642    5.036149
 C     -4.042091    0.961444   -1.895595
 C     -5.189945    0.381696   -2.748723
 H     -5.060298   -0.685836   -2.920939
 H     -6.164523    0.528125   -2.290708
 H     -5.219528    0.866332   -3.723214
 C     -4.272145    2.458324   -1.687786
 H     -5.253848    2.673525   -1.274695
 H     -3.524690    2.881306   -1.025373
 H     -4.208491    2.978999   -2.641898
 C     -2.768400    0.773503   -2.704396
 H     -2.941125    1.147886   -3.711297
 H     -1.938329    1.326104   -2.297961
 H     -2.487096   -0.267985   -2.803615
