81

 Si     0.348203    0.702092   -0.740561
 O     -1.073448    0.618414    0.038961
 C     -1.892057    1.080497    1.045585
 C     -3.040401    1.868800    0.489774
 H     -2.315002    0.193838    1.519210
 C     -2.866453    2.712309   -0.593395
 C     -4.305076    1.736306    1.050571
 C     -3.940532    3.407659   -1.124689
 H     -1.883971    2.825159   -1.022049
 C     -5.383332    2.432459    0.527367
 H     -4.451337    1.088740    1.907118
 C     -5.203667    3.268011   -0.566542
 H     -3.787433    4.062876   -1.977304
 H     -6.366824    2.322470    0.975696
 H     -6.047035    3.813467   -0.980609
 C     -1.120021    1.818403    2.113298
 C     -0.203182    0.910512    2.822772
 H     -1.819129    2.234632    2.847628
 H     -0.557648    2.636686    1.670477
 C      0.502621    0.150741    3.427738
 H      1.136034   -0.488580    3.991049
 Cl     1.156843    0.666732   -2.617373
 Cl     0.559744    2.726373   -0.568682
 O      1.522767    0.233371    0.393854
 O      0.003793   -0.974919   -1.119568
 C      1.969964   -1.915648   -0.127538
 C      0.707733   -2.189100    0.563571
 C     -1.625794   -1.884078    0.285931
 C      3.550640   -0.224242   -0.627571
 C      4.073010   -1.036315   -1.649155
 C      2.628102   -2.839281   -0.934796
 C      3.602189   -2.360410   -1.766462
 C      0.567333   -2.811212    1.794735
 C     -0.688627   -2.819759    2.334222
 C     -1.797953   -2.347857    1.607902
 H      2.278999   -3.862754   -0.967327
 H      4.048893   -3.009062   -2.513705
 H      1.437554   -3.193690    2.312151
 H     -0.852496   -3.205744    3.335085
 N      2.380018   -0.663455   -0.071391
 N     -0.332400   -1.710786   -0.091827
 C     -2.732758   -1.604371   -0.558016
 C     -3.093102   -2.323405    2.181162
 H     -3.220534   -2.657313    3.204365
 C     -3.942541   -1.554601    0.074202
 C     -4.133063   -1.870572    1.440510
 H     -5.133681   -1.813801    1.859534
 C      4.193004    0.962257   -0.208145
 C      5.066993   -0.492563   -2.496020
 H      5.455054   -1.093774   -3.310069
 C      5.498534    0.777602   -2.273508
 H      6.231386    1.237257   -2.930557
 C      5.101635    1.465003   -1.101470
 H      5.607538    2.393490   -0.873229
 H     -4.825577   -1.311800   -0.497722
 C      4.133022    1.485308    1.234716
 C      3.155577    2.635247    1.420675
 H      3.334950    3.431484    0.702106
 H      2.133075    2.309446    1.316453
 H      3.271897    3.058548    2.417150
 C      3.790844    0.353226    2.199667
 H      4.449466   -0.503333    2.072829
 H      3.914401    0.698135    3.223071
 H      2.768068    0.031190    2.105893
 C      5.536179    1.984778    1.619315
 H      6.302687    1.230244    1.452424
 H      5.821110    2.883759    1.079361
 H      5.557477    2.238454    2.677630
 C     -2.674359   -1.530457   -2.087118
 C     -4.047031   -1.904799   -2.673599
 H     -4.405231   -2.866187   -2.311302
 H     -4.809308   -1.156565   -2.472947
 H     -3.965413   -1.979722   -3.756135
 C     -2.358345   -0.126453   -2.576127
 H     -3.039628    0.598738   -2.147533
 H     -1.359068    0.179821   -2.338338
 H     -2.460038   -0.078028   -3.658168
 C     -1.690751   -2.563459   -2.631843
 H     -1.738344   -2.578695   -3.717934
 H     -0.670555   -2.353623   -2.368924
 H     -1.944192   -3.564117   -2.286509
