81

 Si    -0.404224   -0.105722    1.158058
 O      1.149136    0.333726    1.142722
 C      2.107405    1.305516    1.332585
 C      2.092241    2.258373    0.170660
 H      3.063418    0.774427    1.324353
 C      0.915590    2.502148   -0.511640
 C      3.260171    2.879442   -0.250683
 C      0.899201    3.325660   -1.623872
 H      0.006775    2.047526   -0.171781
 C      3.251930    3.711806   -1.358525
 H      4.186146    2.707135    0.285701
 C      2.071297    3.929785   -2.055838
 H     -0.034598    3.500253   -2.149744
 H      4.173008    4.189145   -1.681494
 H      2.064161    4.578514   -2.927356
 C      2.006783    2.011010    2.665041
 C      2.017112    1.046865    3.775853
 H      2.866370    2.684292    2.770264
 H      1.099556    2.608829    2.718117
 C      2.025315    0.245948    4.669950
 H      2.032551   -0.449455    5.475054
 Cl    -1.354632   -1.556023    2.190854
 Cl    -1.099254    1.472422    2.256231
 O     -1.333661    0.415387   -0.169007
 O      0.174036   -1.418124    0.125858
 C     -1.335854   -1.174924   -1.738971
 C      0.036352   -0.718537   -1.959258
 C      2.175591   -0.863509   -0.957824
 C     -3.281489   -0.821368   -0.426312
 C     -3.678224   -2.141886   -0.722492
 C     -1.834245   -2.362396   -2.271334
 C     -2.952228   -2.878287   -1.683612
 C      0.506042   -0.039147   -3.071935
 C      1.811512    0.363926   -3.036224
 C      2.666569   -0.040574   -1.995534
 H     -1.266794   -2.890590   -3.025909
 H     -3.307966   -3.866551   -1.957808
 H     -0.167644    0.202126   -3.883886
 H      2.218929    0.975760   -3.833634
 N     -2.010891   -0.499790   -0.833420
 N      0.822000   -1.012159   -0.937120
 C      3.052467   -1.497826   -0.039905
 C      4.027614    0.345410   -1.986693
 H      4.391563    0.997370   -2.770978
 C      4.342907   -1.045857   -0.063715
 C      4.834154   -0.102384   -0.995333
 H      5.878033    0.193858   -0.946267
 C     -4.129953    0.066250    0.274142
 C     -4.797710   -2.685243   -0.055616
 H     -5.089088   -3.708665   -0.260961
 C     -5.467256   -1.913983    0.842940
 H     -6.305477   -2.314432    1.405882
 C     -5.157406   -0.542384    0.952747
 H     -5.824670    0.071941    1.541233
 H      5.058477   -1.465651    0.627996
 C     -4.223319    1.591198    0.089610
 C     -4.338808    2.292844    1.442261
 H     -5.220589    1.980227    1.995165
 H     -3.466314    2.103609    2.057767
 H     -4.420113    3.368841    1.296657
 C     -3.117977    2.255215   -0.716620
 H     -2.915358    1.738885   -1.647641
 H     -3.440571    3.260120   -0.981080
 H     -2.201757    2.351604   -0.159799
 C     -5.527919    1.800819   -0.707547
 H     -5.485273    1.312470   -1.680030
 H     -6.401983    1.422670   -0.184227
 H     -5.696808    2.861779   -0.884143
 C      2.700618   -2.723524    0.809747
 C      3.976188   -3.529074    1.113754
 H      4.525093   -3.794713    0.212511
 H      4.653394   -3.010831    1.787583
 H      3.701836   -4.458441    1.608944
 C      2.101865   -2.318869    2.146157
 H      2.760008   -1.643182    2.681627
 H      1.154078   -1.832432    2.037770
 H      1.952453   -3.197181    2.770434
 C      1.788228   -3.668812    0.031721
 H      1.643689   -4.586200    0.597065
 H      0.812555   -3.258420   -0.148761
 H      2.235637   -3.947985   -0.920484
