61

 Si    -0.549567    0.796076    1.648423
 O      0.503752    1.379388    0.545336
 C      0.380802    1.983727   -0.689976
 C      1.490388    1.490700   -1.566383
 H     -0.570618    1.716054   -1.141659
 C      2.807644    1.715509   -1.195567
 C      1.220633    0.806864   -2.741102
 C      3.847355    1.285498   -2.000960
 H      3.015849    2.237819   -0.271906
 C      2.259477    0.362414   -3.548413
 H      0.192922    0.628165   -3.036725
 C      3.574370    0.606181   -3.182441
 H      4.874236    1.484039   -1.709935
 H      2.038422   -0.165899   -4.471919
 H      4.388555    0.271072   -3.819235
 C      0.427812    3.484408   -0.498125
 C     -0.660808    3.946404    0.375734
 H      0.359348    3.999578   -1.463796
 H      1.376956    3.756077   -0.036361
 C     -1.547548    4.303072    1.101883
 H     -2.331629    4.620543    1.746618
 Cl     0.422334    1.749832    3.169378
 Cl    -2.392956    0.972469    2.475660
 O     -1.341832    0.161928    0.143004
 O     -0.021619   -0.799292    1.946106
 C     -1.353219   -2.050981    0.141328
 C      0.089321   -1.876318   -0.027608
 C      2.076345   -1.135174    1.012006
 C     -3.409166   -0.898273    0.168383
 C     -4.075977   -2.111672    0.415555
 C     -1.976466   -3.290272    0.292854
 C     -3.326616   -3.305834    0.487315
 C      0.777948   -2.283544   -1.166505
 C      2.110843   -1.999842   -1.249369
 C      2.793894   -1.429023   -0.159129
 H     -1.372991   -4.188902    0.297358
 H     -3.845909   -4.241314    0.667491
 H      0.234289   -2.765899   -1.968230
 H      2.668148   -2.248454   -2.145021
 N     -2.043258   -0.925711    0.158403
 N      0.719849   -1.271153    0.961547
 C      2.745852   -0.792984    2.210156
 C      4.191234   -1.200531   -0.177145
 H      4.740296   -1.414494   -1.085449
 C      4.094704   -0.564228    2.137472
 C      4.818196   -0.731109    0.934586
 H      5.888821   -0.546932    0.928871
 C     -4.131781    0.291770   -0.090695
 C     -5.487094   -2.098328    0.551386
 H     -5.997209   -3.029678    0.769855
 C     -6.175403   -0.935430    0.397802
 H     -7.256768   -0.916041    0.501598
 C     -5.493416    0.252594    0.043935
 H     -6.060109    1.154529   -0.158259
 H      4.624234   -0.309412    3.049119
 C      2.102846   -0.904828    3.494660
 C     -3.504300    1.480869   -0.611753
 C     -3.081110    2.477692   -1.127036
 H     -2.703356    3.370014   -1.564105
 C      1.637386   -1.099028    4.582979
 H      1.215666   -1.254701    5.548006
