61

 Si     0.977035    0.373083    1.159813
 O      1.382581   -0.537880   -0.120104
 C      0.827889   -1.662916   -0.684368
 C      1.614670   -2.883480   -0.312256
 H     -0.190420   -1.791562   -0.323194
 C      2.995428   -2.797080   -0.241726
 C      0.988292   -4.089005   -0.038414
 C      3.749563   -3.901477    0.112932
 H      3.475180   -1.851472   -0.449869
 C      1.738901   -5.201877    0.312980
 H     -0.090172   -4.165346   -0.100026
 C      3.120138   -5.109159    0.391635
 H      4.831015   -3.821934    0.171855
 H      1.242475   -6.144444    0.525660
 H      3.709328   -5.978971    0.667956
 C      0.787398   -1.465158   -2.182729
 C     -0.001722   -0.293088   -2.592073
 H      0.372464   -2.353861   -2.674301
 H      1.808595   -1.332089   -2.541919
 C     -0.629820    0.658545   -2.967674
 H     -1.174488    1.489892   -3.339875
 Cl     2.013818    1.911114    1.961822
 Cl     1.533562   -1.016004    2.554141
 O      0.399417    1.421663   -0.178379
 O     -0.658281    0.420264    1.698389
 C     -1.475785    2.517904    0.282097
 C     -2.080333    1.198661    0.105303
 C     -2.156935   -1.065902    0.766576
 C      0.516477    3.724509   -0.092465
 C     -0.132252    4.906813    0.304105
 C     -2.182408    3.675710    0.619236
 C     -1.493378    4.850582    0.679869
 C     -3.019850    0.968941   -0.906498
 C     -3.371051   -0.315460   -1.188446
 C     -2.941753   -1.373032   -0.355934
 H     -3.236652    3.601833    0.854214
 H     -1.991346    5.765350    0.983919
 H     -3.363445    1.807328   -1.497000
 H     -4.010931   -0.537937   -2.036190
 N     -0.183283    2.556759    0.019581
 N     -1.631228    0.200993    0.841892
 C     -1.942959   -2.023059    1.786211
 C     -3.317585   -2.719573   -0.575913
 H     -3.888064   -2.962581   -1.465406
 C     -2.325494   -3.315231    1.531404
 C     -2.968855   -3.678437    0.327419
 H     -3.244195   -4.716763    0.163801
 C      1.832950    3.747624   -0.615537
 C      0.596044    6.122062    0.282727
 H      0.103230    7.030303    0.610773
 C      1.884124    6.136172   -0.154971
 H      2.448803    7.064260   -0.177047
 C      2.489942    4.948335   -0.627844
 H      3.495185    4.984719   -1.032387
 H     -2.168470   -4.061920    2.302035
 C     -1.545571   -1.634494    3.114293
 C      2.450713    2.587551   -1.207475
 C      2.999865    1.669306   -1.748196
 H      3.490054    0.855317   -2.223972
 C     -1.333203   -1.332168    4.255444
 H     -1.125207   -1.062233    5.264106
