61

 Si    -0.381822   -0.613138    0.456318
 O      1.179105   -1.003025    0.153882
 C      2.214799   -1.566573    0.885665
 C      3.482682   -1.295322    0.135084
 H      2.272964   -1.082310    1.862592
 C      3.696987   -1.888892   -1.099903
 C      4.424577   -0.411084    0.634980
 C      4.834319   -1.599840   -1.832511
 H      2.961970   -2.577459   -1.492940
 C      5.568116   -0.114557   -0.094746
 H      4.272768    0.044573    1.606854
 C      5.773604   -0.706361   -1.330866
 H      4.992351   -2.073654   -2.797000
 H      6.305312    0.573423    0.309881
 H      6.669338   -0.479609   -1.902361
 C      1.986279   -3.049200    1.094692
 C      0.957314   -3.342383    2.107180
 H      2.917388   -3.522845    1.425804
 H      1.691339   -3.499728    0.147829
 C      0.143260   -3.599542    2.951723
 H     -0.574253   -3.841356    3.696804
 Cl    -0.050226    0.067504    2.351889
 Cl    -1.173801   -2.308019   -0.309984
 O     -0.351211    0.526559   -0.822002
 O     -2.014623    0.044503    0.795558
 C     -1.688042    2.262194   -0.318735
 C     -2.759807    1.394310   -0.809616
 C     -3.904616   -0.624257   -0.374998
 C      0.655412    2.444247   -0.047308
 C      0.480632    3.612893    0.709330
 C     -1.899268    3.495489    0.300701
 C     -0.827040    4.121874    0.869812
 C     -3.578561    1.692834   -1.899378
 C     -4.501770    0.762659   -2.278160
 C     -4.695080   -0.411679   -1.518494
 H     -2.907956    3.880152    0.379422
 H     -0.967155    5.039075    1.433442
 H     -3.431594    2.622785   -2.433799
 H     -5.121855    0.928842   -3.152942
 N     -0.469886    1.765414   -0.414367
 N     -2.888599    0.259645   -0.145238
 C     -4.180931   -1.689886    0.518067
 C     -5.688264   -1.367614   -1.848120
 H     -6.279144   -1.216212   -2.744309
 C     -5.156201   -2.581180    0.160124
 C     -5.893378   -2.441926   -1.039228
 H     -6.652691   -3.179719   -1.283628
 C      1.936656    1.998318   -0.441874
 C      1.630285    4.244438    1.244456
 H      1.503247    5.129773    1.857436
 C      2.867024    3.740029    0.977192
 H      3.754255    4.214520    1.387664
 C      3.018045    2.642149    0.097211
 H      4.009968    2.323160   -0.198584
 H     -5.383756   -3.398265    0.835550
 C     -3.562597   -1.786983    1.816181
 C      2.085700    1.067504   -1.526160
 C      2.207479    0.390459   -2.507082
 H      2.330149   -0.208124   -3.377051
 C     -3.120715   -1.871418    2.927756
 H     -2.718481   -1.937166    3.910304
