61

 Si    -0.558846   -1.294811   -0.904055
 O      1.012199   -1.254544   -0.522634
 C      2.005348   -1.537536    0.393087
 C      1.725248   -0.778401    1.657739
 H      2.926262   -1.145290   -0.044223
 C      0.476408   -0.860938    2.247932
 C      2.684403    0.051548    2.217341
 C      0.163848   -0.089026    3.351031
 H     -0.257325   -1.524406    1.827532
 C      2.385698    0.818441    3.334307
 H      3.673714    0.103676    1.780058
 C      1.119008    0.759664    3.896430
 H     -0.826942   -0.154403    3.789653
 H      3.145118    1.465459    3.764389
 H      0.878835    1.365863    4.765608
 C      2.210012   -3.017392    0.597971
 C      2.504096   -3.668367   -0.688163
 H      3.054730   -3.174056    1.280667
 H      1.324923   -3.469359    1.040234
 C      2.745987   -4.166055   -1.753422
 H      2.967398   -4.633084   -2.683172
 Cl    -1.705280   -1.600466   -2.553001
 Cl    -0.954653   -3.116015   -0.074145
 O     -1.406252   -0.394378    0.270431
 O     -0.190058    0.246918   -1.700613
 C     -1.670318    1.732283   -0.424547
 C     -0.231480    1.871227   -0.199708
 C      1.844984    1.179864   -1.082103
 C     -3.532681    0.279581   -0.335347
 C     -4.282750    1.196862   -1.089460
 C     -2.425219    2.735227   -1.036236
 C     -3.697369    2.435681   -1.427378
 C      0.362783    2.781037    0.670877
 C      1.724337    2.851082    0.679350
 C      2.493390    2.073887   -0.211136
 H     -1.956669    3.685934   -1.254084
 H     -4.283978    3.159467   -1.984324
 H     -0.260478    3.387423    1.315581
 H      2.234425    3.526661    1.357385
 N     -2.205209    0.557399   -0.155172
 N      0.492629    1.089355   -0.977896
 C      2.575055    0.425645   -2.031468
 C      3.906285    2.171623   -0.256674
 H      4.401686    2.854021    0.424629
 C      3.937159    0.561752   -2.040526
 C      4.611971    1.424339   -1.145962
 H      5.695457    1.494065   -1.191029
 C     -4.138161   -0.866488    0.230971
 C     -5.611048    0.858295   -1.447659
 H     -6.179053    1.552222   -2.057013
 C     -6.151122   -0.316736   -1.022287
 H     -7.165244   -0.590862   -1.299379
 C     -5.423382   -1.155543   -0.146904
 H     -5.903344   -2.030083    0.278561
 H      4.507216   -0.009018   -2.765014
 C      1.954490   -0.441414   -2.994592
 C     -3.524711   -1.593206    1.313811
 C     -3.107555   -2.154354    2.288306
 H     -2.730620   -2.664378    3.142746
 C      1.515869   -1.174965   -3.835217
 H      1.118774   -1.820927   -4.582084
