61

 Si     0.839500   -1.404819    0.464440
 O     -0.758235   -1.400130    0.206172
 C     -1.601297   -1.911995   -0.766414
 C     -2.068147   -0.729749   -1.566033
 H     -1.032237   -2.573176   -1.423402
 C     -3.393436   -0.362411   -1.709168
 C     -1.082829    0.045273   -2.164845
 C     -3.733990    0.768346   -2.440964
 H     -4.176772   -0.957519   -1.259946
 C     -1.412899    1.175066   -2.886544
 H     -0.051362   -0.248786   -2.063142
 C     -2.746644    1.542903   -3.025748
 H     -4.779629    1.040698   -2.551846
 H     -0.630881    1.766659   -3.352946
 H     -3.013439    2.426382   -3.599001
 C     -2.673437   -2.725013   -0.092407
 C     -2.080631   -3.817687    0.690376
 H     -3.356292   -3.152307   -0.836179
 H     -3.252208   -2.093852    0.577256
 C     -1.580776   -4.704091    1.326335
 H     -1.151500   -5.502199    1.883622
 Cl     2.065180   -1.954898    1.983516
 Cl     1.292992   -2.984947   -0.744602
 O      1.564605   -0.238463   -0.556254
 O      0.434018   -0.052260    1.545035
 C      1.869889    1.685095    0.583415
 C      0.425087    1.861741    0.440708
 C     -1.630565    0.940876    1.139229
 C      3.725030    0.319731    0.052168
 C      4.514877    1.039769    0.963030
 C      2.656616    2.523341    1.374923
 C      3.947571    2.153359    1.618389
 C     -0.191294    2.937517   -0.191396
 C     -1.555029    2.971453   -0.195374
 C     -2.302567    1.990502    0.485691
 H      2.202063    3.391662    1.833529
 H      4.563017    2.731041    2.300865
 H      0.416519    3.693788   -0.671567
 H     -2.082639    3.774099   -0.698780
 N      2.389017    0.612052    0.017814
 N     -0.276707    0.904360    1.018471
 C     -2.336714    0.004587    1.928593
 C     -3.714815    2.053278    0.561984
 H     -4.226881    2.855469    0.044019
 C     -3.700232    0.117001    1.981066
 C     -4.398898    1.128937    1.285596
 H     -5.482197    1.172157    1.357001
 C      4.298317   -0.643591   -0.809972
 C      5.861658    0.643809    1.155180
 H      6.463026    1.177820    1.882269
 C      6.377644   -0.385096    0.427983
 H      7.406177   -0.703040    0.574279
 C      5.603166   -0.996647   -0.585066
 H      6.060509   -1.732116   -1.237889
 H     -4.251696   -0.588143    2.593048
 C     -1.686455   -1.002124    2.719536
 C      3.620855   -1.084100   -2.003078
 C      3.132773   -1.381429   -3.057629
 H      2.694094   -1.657812   -3.987114
 C     -1.215310   -1.852643    3.420248
 H     -0.795561   -2.607729    4.041519
