61

 Si     0.978197   -0.764348    1.161230
 O     -0.637278   -0.855651    1.194960
 C     -1.574253   -1.847395    0.956768
 C     -2.219318   -1.492947   -0.352166
 H     -1.062364   -2.805406    0.843306
 C     -1.375510   -1.372787   -1.449327
 C     -3.571773   -1.255168   -0.513540
 C     -1.870925   -1.010970   -2.686191
 H     -0.323681   -1.570445   -1.325035
 C     -4.078938   -0.898530   -1.756847
 H     -4.247651   -1.353804    0.324949
 C     -3.231257   -0.769494   -2.843812
 H     -1.198692   -0.926973   -3.534791
 H     -5.144613   -0.721954   -1.870870
 H     -3.628328   -0.491567   -3.816146
 C     -2.490126   -1.939882    2.147221
 C     -1.728315   -2.246534    3.365305
 H     -3.242010   -2.722828    1.993137
 H     -3.008214   -0.995122    2.291651
 C     -1.091146   -2.494738    4.351422
 H     -0.540024   -2.727896    5.231055
 Cl     2.430322   -0.206287    2.462151
 Cl     1.354433   -2.766130    1.283325
 O      1.486024   -0.628054   -0.467158
 O      0.645350    0.981081    1.092155
 C      1.828060    1.542947   -0.978953
 C      0.369272    1.646615   -0.996879
 C     -1.511425    1.540797    0.422079
 C      3.671918    0.089458   -0.704148
 C      4.533681    1.196241   -0.638158
 C      2.663552    2.656553   -1.078758
 C      3.995220    2.485973   -0.833244
 C     -0.391745    2.043341   -2.092416
 C     -1.742579    2.132781   -1.924463
 C     -2.328841    1.906480   -0.663525
 H      2.224447    3.627602   -1.266325
 H      4.661984    3.342292   -0.812404
 H      0.097529    2.246370   -3.036526
 H     -2.381804    2.410487   -2.755317
 N      2.328620    0.346006   -0.739247
 N     -0.187369    1.365958    0.166861
 C     -2.044685    1.417670    1.725451
 C     -3.718230    2.074199   -0.449852
 H     -4.344022    2.341558   -1.293012
 C     -3.392142    1.603621    1.881520
 C     -4.239344    1.915198    0.794807
 H     -5.302947    2.049624    0.971415
 C      4.179134   -1.229424   -0.760479
 C      5.915047    0.969119   -0.419668
 H      6.576822    1.823822   -0.335906
 C      6.387690   -0.304271   -0.325764
 H      7.443541   -0.489348   -0.148821
 C      5.520903   -1.400802   -0.541151
 H      5.928212   -2.405094   -0.583047
 H     -3.810634    1.523916    2.878708
 C     -1.232432    1.176869    2.884833
 C      3.373558   -2.325843   -1.235394
 C      2.766503   -3.232975   -1.732701
 H      2.225031   -4.043593   -2.159942
 C     -0.619362    0.999228    3.899195
 H     -0.073078    0.840454    4.798476
