59

 Si     0.910546   -1.646188    1.414426
 O      0.978147    1.100323   -2.291030
 C      0.280256    0.158300   -2.578039
 C     -1.180503    0.238801   -2.838762
 H      0.676869   -0.860454   -2.634024
 C     -1.767796    1.448195   -3.197609
 C     -1.964938   -0.899282   -2.697137
 C     -3.133178    1.524920   -3.397163
 H     -1.139492    2.320948   -3.326995
 C     -3.337969   -0.821139   -2.877278
 H     -1.499301   -1.840521   -2.426531
 C     -3.920285    0.388705   -3.227372
 H     -3.590235    2.466265   -3.688612
 H     -3.952272   -1.708211   -2.753552
 H     -4.995174    0.448042   -3.379017
 C     -1.666209   -4.016319    3.421179
 C     -0.584960   -3.330794    3.168761
 H     -2.508724   -3.556375    3.929832
 H     -1.734733   -5.064596    3.142232
 C      0.503574   -2.640557    2.934016
 H      1.241260   -2.638075    3.735052
 Cl     2.927036   -2.067504    1.529769
 Cl    -0.595902   -2.345344    0.193980
 O      1.254613   -0.628029   -0.064025
 O      0.524932   -0.113256    2.156871
 C      1.615819    1.521130    0.408502
 C      0.172571    1.525721    0.628750
 C     -1.647672    0.561355    1.778001
 C      3.350946    0.241546   -0.532314
 C      4.237952    1.310765   -0.336357
 C      2.439229    2.633727    0.564680
 C      3.757938    2.503898    0.241299
 C     -0.680911    2.303409   -0.153933
 C     -2.022468    2.084781   -0.062357
 C     -2.539014    1.192952    0.900433
 H      2.022566    3.549145    0.964889
 H      4.446358    3.328553    0.394206
 H     -0.246468    2.975676   -0.878559
 H     -2.709088    2.604421   -0.719187
 N      2.087671    0.371153   -0.037543
 N     -0.309459    0.673168    1.513848
 C     -2.129331   -0.141874    2.906632
 C     -3.928393    0.941496    1.044084
 H     -4.612131    1.399666    0.338020
 C     -3.475360   -0.356125    3.014927
 C     -4.381849    0.146950    2.050372
 H     -5.443206   -0.055491    2.161925
 C      3.761608   -0.904364   -1.253497
 C      5.587469    1.166927   -0.756204
 H      6.275150    1.985216   -0.572515
 C      5.996213    0.033111   -1.382227
 H      7.026251   -0.081298   -1.707487
 C      5.062736   -0.995351   -1.658416
 H      5.374053   -1.868042   -2.222912
 H     -3.852942   -0.884020    3.884412
 C     -1.270530   -0.439231    4.028450
 C      2.831624   -1.921834   -1.677932
 N     -0.630462   -0.609645    4.969128
 N      2.107571   -2.715350   -2.090086
