59

 Si    -0.553224   -0.885633    0.324187
 O      1.124814   -1.398820   -0.173423
 C      1.531963   -2.346512   -0.838653
 C      2.931231   -2.677027   -0.993063
 H      0.806029   -2.988742   -1.345192
 C      3.894772   -1.997661   -0.247077
 C      3.307273   -3.674119   -1.892000
 C      5.227185   -2.305787   -0.405090
 H      3.570569   -1.246196    0.457840
 C      4.648252   -3.977695   -2.056925
 H      2.549408   -4.204195   -2.460446
 C      5.601774   -3.293442   -1.316175
 H      5.982973   -1.787787    0.177008
 H      4.950676   -4.750042   -2.757576
 H      6.654689   -3.534792   -1.442749
 C      2.697963   -0.243191    2.680581
 C      1.450118   -0.223051    2.291227
 H      3.348173    0.615143    2.557293
 H      3.100091   -1.121569    3.178883
 C      0.199887   -0.221911    1.919881
 H     -0.501822    0.105767    2.684075
 Cl    -1.316051   -1.391227   -1.588440
 Cl    -0.999109   -2.758587    1.110162
 O     -2.065971   -0.093021    0.869213
 O     -0.173766    0.681968   -0.535159
 C     -2.578611    1.608474   -0.490536
 C     -1.506954    2.314458    0.215936
 C      0.813307    2.430552    0.589647
 C     -3.918963   -0.328535   -0.479526
 C     -4.540652    0.086439   -1.663827
 C     -3.253004    2.124030   -1.598257
 C     -4.177505    1.332173   -2.216988
 C     -1.736947    3.446145    1.005162
 C     -0.684268    4.000620    1.669282
 C      0.625413    3.514855    1.458287
 H     -2.987410    3.106121   -1.967761
 H     -4.669483    1.669462   -3.123531
 H     -2.748230    3.821001    1.100767
 H     -0.833769    4.843784    2.335663
 N     -2.865377    0.408148   -0.024566
 N     -0.295594    1.800773    0.096738
 C      2.114998    2.037230    0.202343
 C      1.765353    4.111393    2.058773
 H      1.614784    4.928380    2.756370
 C      3.187223    2.655346    0.782467
 C      3.014945    3.675506    1.748370
 H      3.889771    4.133449    2.201226
 C     -4.380105   -1.461529    0.228736
 C     -5.526309   -0.759279   -2.237997
 H     -5.987684   -0.458516   -3.172265
 C     -5.882418   -1.916095   -1.618937
 H     -6.631947   -2.568694   -2.057585
 C     -5.335247   -2.244692   -0.352953
 H     -5.709150   -3.106889    0.189353
 H      4.187093    2.371924    0.471170
 C      2.343957    1.118557   -0.884845
 C     -4.022588   -1.659431    1.614151
 N      2.589728    0.440253   -1.779779
 N     -3.842254   -1.757285    2.746533
