59

 Si    -0.727245   -0.380003    1.882031
 O      0.576191    0.539289    1.575016
 C      0.688460    1.853219    1.131271
 C      1.429863    1.860054   -0.168160
 H     -0.301206    2.256236    0.949853
 C      2.799804    1.657494   -0.214786
 C      0.731282    2.052457   -1.350222
 C      3.470980    1.668497   -1.427199
 H      3.348849    1.506792    0.704871
 C      1.394300    2.058499   -2.567996
 H     -0.336029    2.217218   -1.312002
 C      2.768618    1.871973   -2.608148
 H      4.547622    1.526607   -1.450392
 H      0.838606    2.223080   -3.487045
 H      3.294261    1.888039   -3.559117
 C      1.329455    2.668978    2.227637
 C      0.421702    2.764812    3.381681
 H      1.556726    3.680095    1.869597
 H      2.261195    2.196672    2.541235
 C     -0.349119    2.826974    4.299591
 H     -1.020076    2.887225    5.122929
 Cl    -0.049892   -0.975595    3.705558
 Cl    -2.656045   -0.141908    2.424006
 O     -1.188847    0.262489    0.212859
 O     -0.497586   -1.870268    1.071391
 C     -1.344807   -1.354517   -1.295306
 C      0.096512   -1.455522   -1.068611
 C      1.743788   -2.003239    0.529064
 C     -3.251966   -0.076638   -0.775134
 C     -4.046097   -0.965027   -1.517009
 C     -2.074793   -2.212847   -2.119202
 C     -3.428375   -2.048549   -2.178382
 C      1.060647   -1.208732   -2.040658
 C      2.374422   -1.227787   -1.666697
 C      2.747613   -1.612972   -0.364999
 H     -1.558619   -3.006923   -2.644039
 H     -4.041251   -2.730191   -2.758900
 H      0.747002   -0.955081   -3.044088
 H      3.147773   -0.978683   -2.382618
 N     -1.933382   -0.390485   -0.608888
 N      0.453103   -1.774677    0.161709
 C      2.065497   -2.672286    1.731987
 C      4.098674   -1.681013    0.067351
 H      4.876496   -1.341954   -0.607520
 C      3.376514   -2.723672    2.111325
 C      4.399318   -2.171579    1.299014
 H      5.430253   -2.221048    1.638153
 C     -3.803728    1.118537   -0.254641
 C     -5.442886   -0.718250   -1.601353
 H     -6.060555   -1.423440   -2.146990
 C     -5.984621    0.383020   -1.017815
 H     -7.052177    0.574313   -1.080568
 C     -5.148209    1.327042   -0.371202
 H     -5.571536    2.249574    0.012337
 H      3.637876   -3.252078    3.022565
 C      1.085862   -3.512681    2.381188
 C     -2.963425    2.180151    0.246815
 N      0.346513   -4.281884    2.813563
 N     -2.313306    3.070193    0.575094
