59

 Si    -0.437654   -0.669469    0.379601
 O      1.063365   -1.158221   -0.039484
 C      2.052187   -1.924834    0.567988
 C      3.310462   -1.720703   -0.216153
 H      2.205105   -1.567882    1.588626
 C      3.357617   -2.100918   -1.548830
 C      4.411835   -1.102687    0.354784
 C      4.486631   -1.858698   -2.309695
 H      2.493467   -2.568040   -1.999115
 C      5.550256   -0.858751   -0.401992
 H      4.387988   -0.816763    1.400605
 C      5.587633   -1.233489   -1.736216
 H      4.506001   -2.151286   -3.354981
 H      6.412341   -0.380899    0.055288
 H      6.476343   -1.042883   -2.331397
 C      1.642328   -3.380508    0.625055
 C      0.555569   -3.620492    1.589610
 H      2.501188   -3.993978    0.920236
 H      1.320129   -3.699273   -0.365814
 C     -0.321238   -3.799919    2.390296
 H     -1.109931   -3.939232    3.090418
 Cl     0.015043   -0.254605    2.321564
 Cl    -1.426617   -2.106370   -0.642974
 O     -0.339745    0.651114   -0.708275
 O     -2.004797    0.075145    0.881291
 C     -1.426449    2.418245    0.160886
 C     -2.612324    1.783051   -0.418962
 C     -3.970752   -0.142794   -0.317695
 C      0.928430    2.262580    0.319460
 C      0.941441    3.301964    1.258660
 C     -1.449681    3.541351    0.987847
 C     -0.280366    3.930869    1.580918
 C     -3.420466    2.369681   -1.393287
 C     -4.460322    1.638777   -1.890564
 C     -4.767434    0.369976   -1.353946
 H     -2.395351    4.026559    1.193474
 H     -0.277419    4.749982    2.293450
 H     -3.179624    3.361769   -1.754156
 H     -5.081845    2.037617   -2.685566
 N     -0.285962    1.803160   -0.090550
 N     -2.855329    0.562859    0.029331
 C     -4.341670   -1.330643    0.357756
 C     -5.877891   -0.393624   -1.801551
 H     -6.475398   -0.007832   -2.620284
 C     -5.426170   -2.026820   -0.095610
 C     -6.184635   -1.574685   -1.203346
 H     -7.033846   -2.162325   -1.540681
 C      2.125026    1.720370   -0.196584
 C      2.189420    3.682491    1.818338
 H      2.206246    4.463826    2.570541
 C      3.336194    3.075537    1.408518
 H      4.293188    3.359047    1.837726
 C      3.305598    2.120127    0.361699
 H      4.232046    1.722284   -0.036193
 H     -5.721537   -2.931362    0.425613
 C     -3.690804   -1.765944    1.571911
 C      2.107305    0.952958   -1.414288
 N     -3.240351   -2.129768    2.566076
 N      2.095221    0.434361   -2.439376
