59

 Si     1.393757    1.389771   -0.622517
 O     -0.147366    1.194619   -0.292578
 C     -1.200337    1.658239    0.495363
 C     -2.455289    1.667924   -0.323503
 H     -1.316070    0.940193    1.304778
 C     -2.396491    1.483255   -1.693072
 C     -3.690600    1.821397    0.294632
 C     -3.559109    1.443619   -2.446146
 H     -1.442231    1.346412   -2.175869
 C     -4.854244    1.783959   -0.453786
 H     -3.745906    1.965215    1.367474
 C     -4.790951    1.592221   -1.828053
 H     -3.498148    1.282364   -3.517972
 H     -5.815701    1.904219    0.037420
 H     -5.703466    1.559206   -2.416619
 C     -0.866723    2.986315    1.132909
 C      0.266156    2.825453    2.061872
 H     -1.738437    3.350109    1.686284
 H     -0.620148    3.724798    0.368922
 C      1.196131    2.638145    2.797584
 H      2.046631    2.505007    3.423529
 Cl     1.772007    0.529320   -2.371561
 Cl     2.079715    3.246718   -0.653611
 O      2.207547    0.525477    0.568974
 O     -0.313893   -1.739775   -1.470261
 C      1.793130   -1.648703    0.032356
 C      0.472894   -1.433896    0.594731
 C     -1.856893   -1.484212    0.202304
 C      3.991643   -0.748130   -0.188284
 C      4.382430   -1.874107   -0.921241
 C      2.170866   -2.811893   -0.643850
 C      3.432432   -2.900572   -1.146948
 C      0.275945   -1.189715    1.965968
 C     -0.979754   -1.151552    2.458511
 C     -2.081518   -1.314390    1.572876
 H      1.432224   -3.587140   -0.782661
 H      3.734242   -3.777069   -1.711764
 H      1.148185   -1.066648    2.593081
 H     -1.166492   -0.992976    3.513143
 N      2.673148   -0.666956    0.180101
 N     -0.545258   -1.558283   -0.272218
 C     -2.943539   -1.588957   -0.698856
 C     -3.416654   -1.275876    2.037462
 H     -3.589461   -1.148107    3.100265
 C     -4.219596   -1.549360   -0.210082
 C     -4.459867   -1.397112    1.170889
 H     -5.483332   -1.369336    1.534551
 C      4.925087    0.255036    0.146598
 C      5.711729   -1.944855   -1.405076
 H      6.006374   -2.812335   -1.986068
 C      6.596043   -0.941278   -1.143351
 H      7.614386   -0.988304   -1.518043
 C      6.202435    0.151611   -0.341650
 H      6.925039    0.917835   -0.079364
 H     -5.050674   -1.632628   -0.900151
 C     -2.769045   -1.712449   -2.128606
 C      4.607548    1.301787    1.091418
 N     -2.721331   -1.786126   -3.276373
 N      4.380802    2.102517    1.886137
