59

 Si     0.346951    1.076912   -1.713684
 O     -0.638547    1.558770   -0.516079
 C     -0.366067    2.126672    0.724615
 C     -0.899559    1.226129    1.793616
 H      0.707154    2.198210    0.858040
 C     -2.257704    1.149217    2.057265
 C     -0.020772    0.439946    2.523001
 C     -2.733891    0.311975    3.053667
 H     -2.947029    1.761028    1.491172
 C     -0.489725   -0.406244    3.516272
 H      1.038834    0.506213    2.321622
 C     -1.849078   -0.467734    3.787490
 H     -3.798695    0.273977    3.264786
 H      0.209284   -1.008606    4.089914
 H     -2.220176   -1.120338    4.573172
 C     -0.931362    3.526084    0.738008
 C     -0.194320    4.377408   -0.209059
 H     -0.852868    3.960870    1.741534
 H     -1.984395    3.500848    0.455033
 C      0.435409    5.042097   -0.985083
 H      0.981687    5.642790   -1.672428
 Cl    -0.698212    2.056754   -3.158030
 Cl     2.183015    1.513436   -2.426631
 O      1.174841    0.251649   -0.282720
 O     -0.125399   -0.509756   -2.150977
 C      1.140928   -1.958362   -0.452385
 C     -0.298725   -1.766383   -0.281088
 C     -2.233764   -0.848528   -1.270343
 C      3.210304   -0.837051   -0.423328
 C      3.859963   -2.032864   -0.767225
 C      1.747829   -3.190506   -0.701119
 C      3.095615   -3.210528   -0.915107
 C     -1.029223   -2.250636    0.799313
 C     -2.345591   -1.899098    0.898526
 C     -2.977688   -1.175963   -0.130757
 H      1.132420   -4.079133   -0.764938
 H      3.599141   -4.137070   -1.170505
 H     -0.527790   -2.839932    1.554916
 H     -2.927371   -2.204972    1.759117
 N      1.845002   -0.841173   -0.395352
 N     -0.888708   -1.051811   -1.221352
 C     -2.872935   -0.392868   -2.445963
 C     -4.349962   -0.811839   -0.094411
 H     -4.919719   -1.027589    0.802373
 C     -4.195230   -0.058977   -2.373835
 C     -4.928601   -0.215388   -1.170216
 H     -5.976271    0.071179   -1.146813
 C      3.958138    0.316021   -0.084259
 C      5.272626   -2.018175   -0.919641
 H      5.770054   -2.934923   -1.217401
 C      5.979177   -0.881076   -0.686027
 H      7.059232   -0.866574   -0.802101
 C      5.315699    0.284726   -0.228224
 H      5.892901    1.162160    0.044401
 H     -4.701717    0.272817   -3.274539
 C     -2.230300   -0.550580   -3.730322
 C      3.339701    1.453972    0.553805
 N     -1.770827   -0.803672   -4.755068
 N      2.886317    2.336489    1.135351
