59

 Si     0.625837   -1.353983    0.916707
 O     -0.952097   -1.373315    0.560594
 C     -1.907931   -1.667298   -0.398530
 C     -1.594659   -0.885036   -1.638925
 H     -2.848691   -1.295206    0.013344
 C     -0.376127   -1.050116   -2.274318
 C     -2.489214    0.054686   -2.127082
 C     -0.026435   -0.257196   -3.350178
 H      0.310429   -1.795994   -1.915225
 C     -2.152868    0.848531   -3.214096
 H     -3.460210    0.166591   -1.662308
 C     -0.913792    0.702869   -3.820334
 H      0.938854   -0.400528   -3.824667
 H     -2.862229    1.580636   -3.589744
 H     -0.644586    1.326691   -4.668334
 C     -2.073903   -3.149853   -0.610431
 C     -2.363371   -3.801183    0.676567
 H     -2.905022   -3.327409   -1.304480
 H     -1.172600   -3.580098   -1.041581
 C     -2.591816   -4.284677    1.751156
 H     -2.791433   -4.731717    2.695971
 Cl     1.876968   -1.563869    2.500885
 Cl     1.104700   -3.146254    0.085151
 O      1.342773   -0.372330   -0.281534
 O      0.184624    0.152728    1.761083
 C      1.609698    1.720457    0.516099
 C      0.162413    1.846859    0.335670
 C     -1.879802    1.037802    1.191080
 C      3.477140    0.297839    0.263239
 C      4.254627    1.170295    1.036074
 C      2.382442    2.688347    1.158863
 C      3.674395    2.378112    1.477044
 C     -0.470489    2.791776   -0.466619
 C     -1.834638    2.826069   -0.450644
 C     -2.567257    1.968690    0.395061
 H      1.918556    3.620077    1.455542
 H      4.277100    3.072110    2.054515
 H      0.124966    3.456036   -1.080189
 H     -2.372901    3.531579   -1.074562
 N      2.144320    0.569684    0.154185
 N     -0.527942    0.996279    1.073230
 C     -2.580987    0.201172    2.089735
 C     -3.984368    2.019248    0.471321
 H     -4.510555    2.732213   -0.154158
 C     -3.943215    0.289325    2.138123
 C     -4.656857    1.195100    1.315513
 H     -5.740817    1.231307    1.380402
 C      4.062832   -0.809946   -0.390253
 C      5.600193    0.810185    1.312854
 H      6.194214    1.465907    1.940287
 C      6.124923   -0.332727    0.794779
 H      7.150752   -0.617506    1.010721
 C      5.361910   -1.121352   -0.101911
 H      5.824397   -1.962070   -0.609044
 H     -4.482258   -0.350645    2.828914
 C     -1.918430   -0.726082    2.967876
 C      3.394545   -1.444286   -1.502146
 N     -1.439114   -1.484301    3.687273
 N      2.913003   -1.864223   -2.458568
