59

 Si    -0.390020   -0.624155    0.492051
 O      1.170473   -1.027656    0.228301
 C      2.195542   -1.549894    1.010041
 C      3.468117   -1.372240    0.242808
 H      2.258102   -0.984783    1.942358
 C      3.624638   -2.002791   -0.982249
 C      4.470324   -0.537636    0.711796
 C      4.763776   -1.796830   -1.738702
 H      2.836795   -2.640867   -1.356252
 C      5.618255   -0.327913   -0.040881
 H      4.361862   -0.053657    1.676167
 C      5.764829   -0.954890   -1.268626
 H      4.868852   -2.288447   -2.700926
 H      6.402722    0.321720    0.337589
 H      6.661456   -0.792350   -1.860232
 C      1.926122   -3.000915    1.345470
 C      0.819229   -3.159189    2.304005
 H      2.823823   -3.450590    1.784710
 H      1.687574   -3.539853    0.429085
 C     -0.075543   -3.269498    3.097296
 H     -0.880995   -3.350774    3.787403
 Cl    -0.080470    0.209878    2.324425
 Cl    -1.183186   -2.330210   -0.248550
 O     -0.361482    0.456948   -0.837503
 O     -2.044028    0.039186    0.782863
 C     -1.658816    2.237746   -0.383138
 C     -2.745855    1.378094   -0.857709
 C     -3.916490   -0.619241   -0.405080
 C      0.688030    2.365455   -0.118213
 C      0.550561    3.567088    0.588625
 C     -1.834347    3.494969    0.195277
 C     -0.741639    4.115857    0.734778
 C     -3.556750    1.670146   -1.954890
 C     -4.494960    0.749864   -2.323083
 C     -4.705442   -0.410560   -1.547615
 H     -2.832006    3.909348    0.265608
 H     -0.855659    5.056931    1.263980
 H     -3.394322    2.589583   -2.503238
 H     -5.111337    0.914104   -3.200855
 N     -0.452707    1.707948   -0.465400
 N     -2.893129    0.254276   -0.176437
 C     -4.205262   -1.679626    0.487670
 C     -5.713582   -1.359789   -1.862550
 H     -6.303241   -1.210105   -2.760369
 C     -5.193290   -2.562018    0.153758
 C     -5.935094   -2.422512   -1.045021
 H     -6.705688   -3.151351   -1.280026
 C      1.957214    1.860707   -0.474111
 C      1.724401    4.181792    1.098379
 H      1.625210    5.095371    1.674692
 C      2.944736    3.630257    0.857701
 H      3.845999    4.093819    1.249199
 C      3.062276    2.487214    0.027378
 H      4.042825    2.119368   -0.252145
 H     -5.426215   -3.369877    0.839515
 C     -3.577653   -1.792581    1.784033
 C      2.078595    0.868500   -1.509891
 N     -3.144889   -1.901197    2.844479
 N      2.171762    0.157824   -2.407747
