59

 Si    -0.483648   -1.266452   -0.423430
 O      0.926691   -0.705148    0.137843
 C      1.842368   -1.103092    1.104560
 C      3.141847   -1.334909    0.397121
 H      1.499115   -2.038765    1.550850
 C      3.119238   -2.216168   -0.676193
 C      4.324763   -0.690546    0.718109
 C      4.253482   -2.437345   -1.433645
 H      2.198595   -2.725714   -0.919393
 C      5.470442   -0.912911   -0.034545
 H      4.372086   -0.016011    1.562340
 C      5.435735   -1.779604   -1.115475
 H      4.214125   -3.120411   -2.276719
 H      6.393882   -0.404554    0.228616
 H      6.330222   -1.948336   -1.708517
 C      1.865968   -0.047965    2.180072
 C      0.513320    0.216294    2.687299
 H      2.498323   -0.370062    3.015319
 H      2.282374    0.877191    1.793904
 C     -0.594589    0.419066    3.100349
 H     -1.569709    0.575662    3.491477
 Cl    -1.217501   -1.905817   -2.199568
 Cl    -0.401395   -3.111450    0.432944
 O     -1.724652   -0.662950    0.583111
 O     -0.517171    0.327711   -1.229426
 C     -2.644763    1.174391   -0.361465
 C     -1.429372    1.855774    0.086700
 C      0.898798    1.893702   -0.274593
 C     -3.812892   -0.877388   -0.360291
 C     -4.708911   -0.376198   -1.313519
 C     -3.599147    1.764248   -1.190258
 C     -4.577291    0.968748   -1.718121
 C     -1.376871    2.926641    0.973436
 C     -0.146971    3.434828    1.281663
 C      1.014357    2.941281    0.654392
 H     -3.494261    2.809006   -1.453095
 H     -5.282051    1.373803   -2.437650
 H     -2.292550    3.303137    1.411896
 H     -0.051463    4.242968    1.999731
 N     -2.738687   -0.101608   -0.035175
 N     -0.333348    1.355458   -0.453860
 C      2.022850    1.447480   -1.003990
 C      2.302810    3.479321    0.915132
 H      2.393167    4.273119    1.648892
 C      3.239300    2.005085   -0.736123
 C      3.389716    3.012455    0.247802
 H      4.376723    3.424042    0.439681
 C     -4.031153   -2.130440    0.255311
 C     -5.726554   -1.239018   -1.800417
 H     -6.400000   -0.867795   -2.565360
 C     -5.848754   -2.501040   -1.307725
 H     -6.619562   -3.168285   -1.682903
 C     -5.024345   -2.929449   -0.237199
 H     -5.209935   -3.888061    0.236640
 H      4.101638    1.671561   -1.301721
 C      1.920296    0.474122   -2.056033
 C     -3.394195   -2.445677    1.512796
 N      1.890715   -0.292288   -2.912257
 N     -2.981206   -2.631637    2.570677
