77

 Si     0.241274   -0.507960   -0.188623
 O     -1.474680   -1.128716    0.090359
 C     -1.992236   -1.987837    0.786943
 C     -3.034873   -2.869996    0.301458
 H     -1.650732   -2.138727    1.817053
 C     -3.318347   -2.880744   -1.064491
 C     -3.724861   -3.706586    1.176513
 C     -4.301103   -3.714182   -1.552323
 H     -2.747081   -2.233464   -1.717478
 C     -4.719171   -4.535602    0.686647
 H     -3.486099   -3.700118    2.235409
 C     -5.004505   -4.536127   -0.672797
 H     -4.524655   -3.733727   -2.614523
 H     -5.268722   -5.186370    1.360178
 H     -5.782399   -5.191885   -1.057248
 C      0.001891    0.586623    3.687931
 C      0.339432   -0.137799    2.653589
 H     -0.947745    0.426856    4.189611
 H      0.667658    1.338965    4.095912
 C      0.669134   -0.862671    1.621806
 H      1.194682   -1.786878    1.847212
 Cl    -0.415331    0.026242   -2.116929
 Cl     0.808082   -2.429483   -0.783514
 O     -0.364419    1.065241    0.413094
 O      1.748062    0.295816   -0.591395
 C      1.157102    2.668703    0.100910
 C      2.059669    1.884818    0.943981
 C      3.445206   -0.027736    0.957124
 C     -0.966032    2.852631   -0.908911
 C     -0.512194    3.964466   -1.640467
 C      1.611236    3.836427   -0.521926
 C      0.796902    4.445252   -1.424527
 C      2.572625    2.326711    2.164824
 C      3.419234    1.499142    2.841419
 C      3.884561    0.304747    2.250376
 H      2.612695    4.186735   -0.309464
 H      1.134709    5.317090   -1.974694
 H      2.241435    3.277051    2.562574
 H      3.777510    1.768825    3.829666
 C      4.803909   -0.557767    2.894266
 C      4.040524   -1.073509    0.216002
 N     -0.049601    2.190748   -0.132544
 N      2.431159    0.726146    0.435250
 C     -2.315365    2.440571   -0.976497
 C     -1.387783    4.588401   -2.560549
 C     -2.658736    4.128631   -2.701562
 C     -3.120106    3.074778   -1.882390
 H     -1.023911    5.432401   -3.135088
 H     -3.343010    4.595631   -3.404406
 H     -4.163033    2.789513   -1.939152
 C      5.276523   -1.650936    2.234693
 C      4.922872   -1.877549    0.884235
 H      5.122901   -0.324289    3.903548
 H      5.980610   -2.323215    2.717501
 H      5.409694   -2.678971    0.341495
 C     -2.928012    1.482010   -0.034213
 C     -3.836008    0.543574   -0.501552
 C     -2.726903    1.611887    1.330717
 C     -4.545927   -0.245675    0.383891
 H     -3.991373    0.432692   -1.565903
 C     -3.407399    0.799764    2.217934
 H     -2.046098    2.356109    1.709345
 C     -4.325113   -0.127806    1.747571
 H     -5.271030   -0.957532    0.007666
 H     -3.242599    0.912329    3.284700
 H     -4.878778   -0.748669    2.445583
 C      3.864673   -1.187216   -1.246308
 C      3.725043   -2.427281   -1.850797
 C      3.919390   -0.048654   -2.037399
 C      3.598740   -2.525690   -3.225228
 H      3.691410   -3.321773   -1.243989
 C      3.790484   -0.140525   -3.409733
 H      4.073637    0.917750   -1.585428
 C      3.621781   -1.381043   -4.007911
 H      3.481964   -3.501999   -3.685258
 H      3.835195    0.758213   -4.016943
 H      3.522362   -1.456785   -5.086826
