77

 Si    -0.230538   -1.336343   -0.185217
 O      1.281084   -1.821873    0.168261
 C      2.257217   -2.269499   -0.720379
 C      2.888135   -1.081977   -1.393261
 H      1.768811   -2.875397   -1.486180
 C      4.020085   -0.463782   -0.897893
 C      2.272661   -0.536877   -2.509841
 C      4.495215    0.710686   -1.461008
 H      4.557038   -0.903770   -0.072144
 C      2.729820    0.636705   -3.074463
 H      1.414468   -1.032537   -2.932514
 C      3.840726    1.274493   -2.542580
 H      5.388966    1.176711   -1.057836
 H      2.229481    1.046631   -3.946148
 H      4.211177    2.192825   -2.987796
 C      3.205253   -3.146605    0.050955
 C      2.504322   -4.305712    0.622735
 H      4.013855   -3.503891   -0.598656
 H      3.647370   -2.574152    0.863543
 C      1.922672   -5.248648    1.084299
 H      1.425187   -6.096396    1.490509
 Cl    -0.706725   -2.043016   -2.002655
 Cl    -1.151720   -2.630432    1.055688
 O     -1.441933   -0.116775    0.150826
 O      0.626008    0.111275   -0.607258
 C     -1.785094    0.714603   -1.923912
 C     -0.650780    1.614778   -1.743567
 C      1.274062    2.244247   -0.519939
 C     -3.445936   -0.592775   -0.846383
 C     -4.084147   -0.818662   -2.074165
 C     -2.474159    0.620338   -3.142815
 C     -3.557904   -0.197737   -3.228680
 C     -0.666335    2.872237   -2.383903
 C      0.347116    3.748498   -2.173405
 C      1.350240    3.457419   -1.218055
 H     -2.079901    1.138794   -4.005005
 H     -4.053421   -0.351121   -4.181742
 H     -1.489512    3.104025   -3.044940
 H      0.372147    4.699311   -2.695502
 C      2.401863    4.350526   -0.918143
 C      2.127467    1.965727    0.567809
 N     -2.238372    0.052360   -0.868657
 N      0.341575    1.317575   -0.924593
 C     -4.022796   -0.994135    0.375385
 C     -5.237377   -1.635150   -2.096699
 C     -5.724251   -2.144019   -0.930448
 C     -5.136194   -1.785965    0.303695
 C     -3.569135   -0.435853    1.666482
 H     -5.719148   -1.837137   -3.046450
 H     -6.606614   -2.778071   -0.932497
 H     -5.613794   -2.099970    1.224075
 C      3.295308    4.037301    0.061489
 C      3.130823    2.860215    0.822277
 C      1.868084    0.845359    1.490115
 H      2.473918    5.279679   -1.472124
 H      4.109914    4.715525    0.301366
 H      3.787708    2.680248    1.664747
 C     -3.476186   -1.234430    2.796408
 C     -3.324161    0.925667    1.775788
 C     -2.868408    0.677002    4.117591
 C     -2.969576    1.481126    2.991426
 C     -3.126520   -0.682853    4.017117
 H     -3.056420   -1.319935    4.893790
 H     -2.595439    1.111018    5.075176
 H     -2.788494    2.549389    3.064395
 H     -3.432038    1.566096    0.914296
 C      2.894397    0.037459    1.940416
 C      0.587175    0.645493    1.979401
 C      1.350186   -1.225278    3.265076
 C      0.327757   -0.385936    2.853114
 C      2.638110   -1.000724    2.818301
 H      3.906120    0.226378    1.617029
 H      3.453738   -1.626041    3.167213
 H      1.142668   -2.038149    3.953254
 H     -0.676691   -0.523721    3.226119
 H     -0.213666    1.304292    1.695950
 H     -3.666540   -2.296667    2.721334
