77

 Si    -0.273363    0.052175   -0.303537
 O      0.029990   -1.442195   -0.919198
 C     -0.930228   -2.286768   -1.476611
 C     -1.584713   -3.099703   -0.399518
 H     -1.699333   -1.675951   -1.946443
 C     -0.846421   -3.994818    0.355628
 C     -2.929521   -2.919008   -0.113369
 C     -1.434018   -4.696154    1.394096
 H      0.197846   -4.138147    0.128665
 C     -3.527917   -3.620207    0.922512
 H     -3.516795   -2.224049   -0.702088
 C     -2.780118   -4.507695    1.681454
 H     -0.843749   -5.396797    1.977364
 H     -4.583033   -3.474611    1.135310
 H     -3.247021   -5.059709    2.492199
 C     -0.295146   -3.121742   -2.554955
 C      0.290862   -2.282013   -3.609220
 H     -1.046146   -3.782306   -3.005525
 H      0.482480   -3.746187   -2.126437
 C      0.760607   -1.586027   -4.467111
 H      1.175638   -0.993296   -5.245715
 Cl    -1.337481    0.707912   -1.901120
 Cl    -0.905873   -0.585120    1.508447
 O     -0.442676    1.665022    0.448968
 O      1.387480    0.404948   -0.396731
 C      1.205137    3.007895   -0.215831
 C      1.945874    2.242467    0.784810
 C      2.559075    0.098251    1.569982
 C     -1.008234    3.491420   -0.873076
 C     -0.520468    4.453036   -1.775464
 C      1.730510    4.014130   -1.024031
 C      0.868855    4.687273   -1.843027
 C      2.431323    2.859185    1.941840
 C      2.833080    2.063161    2.971000
 C      2.894282    0.661402    2.815653
 H      2.795522    4.207476   -1.007178
 H      1.240973    5.438988   -2.531550
 H      2.387552    3.937504    2.019004
 H      3.126977    2.498909    3.920681
 C      3.315740   -0.190687    3.860847
 C      2.826597   -1.256174    1.281132
 N     -0.084955    2.725445   -0.222363
 N      1.973766    0.932239    0.652789
 C     -2.391433    3.327394   -0.638686
 C     -1.452754    5.168304   -2.568098
 C     -2.784444    4.940368   -2.416121
 C     -3.248095    4.037612   -1.427520
 C     -2.888944    2.515833    0.492019
 H     -1.082204    5.894859   -3.282046
 H     -3.507694    5.481614   -3.020078
 H     -4.314662    3.938650   -1.260933
 C      3.429892   -1.527954    3.631208
 C      3.226735   -2.040026    2.332774
 C      2.896330   -1.785581   -0.095401
 H      3.546810    0.240776    4.827967
 H      3.746081   -2.200415    4.423902
 H      3.457681   -3.080725    2.144607
 C     -3.778191    1.475179    0.282315
 C     -2.498646    2.838796    1.782566
 C     -3.865259    1.067099    2.645696
 C     -2.983208    2.117229    2.857226
 C     -4.263583    0.748596    1.356448
 H     -4.957530   -0.068169    1.184215
 H     -4.249096    0.500586    3.488852
 H     -2.680162    2.381426    3.865727
 H     -1.820863    3.663313    1.951400
 C      3.447968   -1.019044   -1.112306
 C      2.579102   -3.110135   -0.349048
 C      3.336315   -2.884623   -2.612946
 C      2.805232   -3.661900   -1.596526
 C      3.653509   -1.557579   -2.366760
 H      3.751988   -0.003306   -0.923894
 H      4.090731   -0.945970   -3.149726
 H      3.514559   -3.315693   -3.593068
 H      2.576026   -4.708421   -1.771999
 H      2.170351   -3.722877    0.440525
 H     -4.085501    1.225310   -0.724574
