77

 Si     0.511113   -1.077981   -1.072426
 O      1.288500    2.109658    1.895820
 C      0.504211    2.584357    1.113492
 C     -0.790837    3.210918    1.495613
 H      0.669962    2.550766    0.032533
 C     -0.987103    3.680911    2.790402
 C     -1.818887    3.289847    0.564591
 C     -2.206720    4.218099    3.156661
 H     -0.172313    3.619757    3.501905
 C     -3.049260    3.811871    0.934075
 H     -1.659407    2.912858   -0.439451
 C     -3.241788    4.276930    2.227153
 H     -2.357658    4.591583    4.165422
 H     -3.856754    3.861047    0.209607
 H     -4.203334    4.694313    2.515298
 C     -0.513762   -0.420822   -4.933811
 C     -0.033522   -1.009023   -3.874924
 H     -1.543276   -0.591368   -5.237904
 H      0.104855    0.247041   -5.527007
 C      0.465186   -1.635272   -2.836235
 H      0.931585   -2.596319   -3.039145
 Cl     1.994153   -2.565028   -0.668736
 Cl    -0.849994    0.546350   -1.417080
 O      1.257793    0.077540   -0.044044
 O     -0.424372   -1.800575    0.159067
 C      1.102580   -0.730901    2.043078
 C     -0.336987   -0.465194    1.966626
 C     -2.408767   -0.843669    0.880745
 C      3.230120   -0.410622    1.062090
 C      3.833732   -1.007936    2.180211
 C      1.666830   -1.287779    3.190592
 C      3.018652   -1.452853    3.238414
 C     -0.937773    0.357962    2.918352
 C     -2.263362    0.639009    2.794390
 C     -3.026539    0.059280    1.763751
 H      1.016812   -1.600689    3.996487
 H      3.483963   -1.917437    4.101625
 H     -0.318502    0.802390    3.682741
 H     -2.745636    1.320124    3.484180
 C     -4.400076    0.357240    1.594438
 C     -3.158527   -1.531725   -0.100222
 N      1.867312   -0.359709    1.033962
 N     -1.056250   -1.015920    1.004746
 C      4.004118    0.104603    0.000434
 C      5.243961   -1.146520    2.203606
 C      5.986947   -0.694836    1.159977
 C      5.356410   -0.056109    0.064329
 C      3.393504    0.860696   -1.116391
 H      5.706103   -1.616417    3.064209
 H      7.068379   -0.798916    1.165386
 H      5.965830    0.335750   -0.742601
 C     -5.103911   -0.241893    0.598474
 C     -4.477044   -1.200715   -0.231241
 H     -4.864578    1.066324    2.269258
 H     -6.157041   -0.018315    0.452649
 H     -5.067949   -1.718882   -0.977652
 C      3.180333    0.260159   -2.345103
 C      3.062511    2.192057   -0.927644
 C      2.265719    2.313630   -3.188580
 C      2.493654    2.917434   -1.960243
 C      2.616949    0.986344   -3.380369
 H      2.453167    0.509905   -4.340531
 H      1.821847    2.882419   -4.000262
 H      2.235525    3.961670   -1.810039
 H      3.245570    2.658338    0.030511
 H      3.442089   -0.779409   -2.488064
 C     -2.595742   -2.624933   -0.922814
 C     -2.111565   -3.774044   -0.313399
 C     -2.613676   -2.532799   -2.304277
 C     -1.623629   -4.814111   -1.081345
 H     -2.112940   -3.856049    0.764235
 C     -2.135613   -3.578908   -3.077133
 H     -2.984325   -1.632651   -2.776350
 C     -1.634199   -4.717917   -2.467135
 H     -1.241153   -5.708127   -0.598255
 H     -2.149929   -3.499569   -4.159439
 H     -1.255278   -5.537238   -3.071279
