77

 Si     0.013240   -0.886829    1.253598
 O      0.328121    0.706659    1.240755
 C     -0.455727    1.839016    1.120166
 C      0.139723    2.705682    0.052934
 H     -1.457215    1.557090    0.816309
 C      1.331568    3.379908    0.273939
 C     -0.480869    2.817536   -1.180552
 C      1.875629    4.189198   -0.708653
 H      1.833367    3.281785    1.226759
 C      0.060606    3.622387   -2.172606
 H     -1.401408    2.281604   -1.361124
 C      1.236820    4.317176   -1.935348
 H      2.798423    4.727248   -0.514240
 H     -0.444602    3.714425   -3.130108
 H      1.656323    4.959841   -2.704524
 C     -0.529678    2.513232    2.470933
 C     -1.093853    1.610777    3.484358
 H     -1.138864    3.422483    2.415332
 H      0.473362    2.795994    2.789939
 C     -1.534804    0.855056    4.305744
 H     -1.922989    0.189713    5.038756
 Cl     1.253694   -1.241899    2.832308
 Cl    -1.406453   -2.183423    1.894489
 O     -1.093687   -0.435932   -0.112328
 O      1.045405   -1.575895    0.085492
 C     -0.576168   -1.650192   -1.894461
 C      0.564081   -0.737916   -1.941936
 C      2.526142   -0.027837   -0.832049
 C     -2.659312   -1.992506   -0.854273
 C     -2.823194   -3.179942   -1.588090
 C     -0.748758   -2.747605   -2.737479
 C     -1.839249   -3.543019   -2.531674
 C      0.758350    0.162169   -2.984919
 C      1.774297    1.064251   -2.866912
 C      2.676836    0.993685   -1.789441
 H      0.005092   -2.965619   -3.482990
 H     -1.978067   -4.448054   -3.114034
 H      0.071521    0.159278   -3.820749
 H      1.921228    1.826620   -3.622794
 C      3.770427    1.882437   -1.678501
 C      3.552923   -0.309758    0.096383
 N     -1.456251   -1.354928   -0.957173
 N      1.374457   -0.764117   -0.901027
 C     -3.695234   -1.473184   -0.049639
 C     -3.988521   -3.955281   -1.362004
 C     -4.931015   -3.520816   -0.483915
 C     -4.795532   -2.256368    0.141389
 C     -3.682216   -0.067654    0.409967
 H     -4.107592   -4.887632   -1.902061
 H     -5.824233   -4.110961   -0.298002
 H     -5.611000   -1.875710    0.745500
 C      4.672994    1.717262   -0.675253
 C      4.577691    0.595802    0.176002
 C      3.674632   -1.609571    0.789453
 H      3.871248    2.676985   -2.406680
 H      5.515663    2.394697   -0.569775
 H      5.387264    0.398321    0.868012
 C     -3.859890    0.259520    1.743712
 C     -3.626042    0.939386   -0.543776
 C     -3.941183    2.590091    1.168867
 C     -3.759959    2.264145   -0.167802
 C     -3.989177    1.585310    2.123098
 H     -4.130405    1.832585    3.169571
 H     -4.053008    3.628743    1.465887
 H     -3.739120    3.045462   -0.921397
 H     -3.513865    0.686992   -1.589008
 C      3.403345   -2.786039    0.106443
 C      4.181482   -1.676535    2.080327
 C      4.072505   -4.072695    2.016995
 C      4.375842   -2.900406    2.694586
 C      3.590976   -4.011964    0.717605
 H      3.056218   -2.753218   -0.913341
 H      3.374362   -4.924881    0.171036
 H      4.223169   -5.034767    2.498307
 H      4.765462   -2.937697    3.707212
 H      4.405392   -0.766152    2.619545
 H     -3.900742   -0.523547    2.488931
