77

 Si    -0.469645    0.101181   -0.223412
 O     -0.133091   -1.449028   -0.658167
 C     -1.097474   -2.409360   -0.916473
 C     -1.324436   -3.290869    0.279842
 H     -2.036953   -1.909390   -1.163304
 C     -0.302122   -3.496633    1.188565
 C     -2.544002   -3.921493    0.475564
 C     -0.487034   -4.314232    2.289732
 H      0.632588   -2.989606    1.034374
 C     -2.737160   -4.746003    1.574609
 H     -3.351683   -3.767222   -0.231716
 C     -1.709704   -4.944004    2.485268
 H      0.322528   -4.462774    2.998084
 H     -3.696965   -5.233866    1.719926
 H     -1.861042   -5.588062    3.346766
 C     -0.681828   -3.240375   -2.108364
 C     -0.368859   -2.426426   -3.290190
 H     -1.485682   -3.940275   -2.365968
 H      0.196148   -3.826737   -1.850093
 C     -0.105620   -1.769839   -4.259940
 H      0.120649   -1.207884   -5.133125
 Cl    -1.536132    0.609914   -1.853612
 Cl    -1.256551   -0.358145    1.582362
 O     -0.571505    1.756905    0.425538
 O      1.188372    0.444398   -0.442328
 C      1.193678    2.996463   -0.118696
 C      1.842504    2.144223    0.877299
 C      2.442967   -0.081019    1.414518
 C     -0.922349    3.559510   -0.995266
 C     -0.306926    4.461793   -1.880936
 C      1.837665    3.961899   -0.891970
 C      1.091249    4.640770   -1.812680
 C      2.335993    2.621430    2.094144
 C      2.726214    1.706567    3.028224
 C      2.790827    0.330521    2.713062
 H      2.904290    4.109003   -0.779657
 H      1.562130    5.352962   -2.482553
 H      2.314130    3.685382    2.291308
 H      3.024152    2.030840    4.020557
 C      3.236342   -0.645406    3.633522
 C      2.732416   -1.377219    0.940803
 N     -0.100348    2.771535   -0.243010
 N      1.837781    0.852176    0.617844
 C     -2.327174    3.483791   -0.868223
 C     -1.126645    5.181166   -2.785683
 C     -2.476694    5.018818   -2.749029
 C     -3.072823    4.194256   -1.763533
 C     -2.957343    2.790875    0.274954
 H     -0.658315    5.858586   -3.490446
 H     -3.114676    5.562982   -3.440248
 H     -4.153426    4.163803   -1.683764
 C      3.370607   -1.938882    3.226886
 C      3.164881   -2.283863    1.873271
 C      2.785279   -1.691303   -0.501261
 H      3.474914   -0.342564    4.646741
 H      3.709461   -2.702375    3.921900
 H      3.417770   -3.285213    1.547138
 C     -3.942621    1.837508    0.079466
 C     -2.596171    3.151694    1.564390
 C     -4.178050    1.585333    2.454922
 C     -3.201020    2.550741    2.651900
 C     -4.549497    1.231648    1.166615
 H     -5.318095    0.482043    1.004576
 H     -4.657244    1.113858    3.307816
 H     -2.916913    2.843729    3.657919
 H     -1.845907    3.912592    1.722355
 C      3.290327   -0.753025   -1.391493
 C      2.474078   -2.957745   -0.969039
 C      3.114994   -2.323419   -3.192736
 C      2.643234   -3.275553   -2.304643
 C      3.441478   -1.057601   -2.729576
 H      3.596242    0.217841   -1.041134
 H      3.841156   -0.311511   -3.409671
 H      3.243130   -2.572697   -4.241675
 H      2.407708   -4.275752   -2.653538
 H      2.100385   -3.708789   -0.289891
 H     -4.228543    1.557423   -0.925718
