77

 Si     0.491447    0.272129   -1.117063
 O      0.410732    1.252989    0.178861
 C     -0.751568    1.471618    0.888973
 C     -1.316603    2.833604    0.619613
 H     -1.494137    0.737932    0.586261
 C     -0.479162    3.849855    0.197935
 C     -2.668152    3.088849    0.800712
 C     -0.984491    5.113032   -0.060737
 H      0.569551    3.638869    0.062912
 C     -3.180417    4.351573    0.545900
 H     -3.325798    2.299742    1.145055
 C     -2.339220    5.366078    0.111274
 H     -0.319105    5.902752   -0.397026
 H     -4.239881    4.544966    0.688958
 H     -2.738770    6.356083   -0.089495
 C     -0.462795    1.295391    2.359920
 C      0.107467   -0.013812    2.702937
 H     -1.380604    1.440325    2.942037
 H      0.251610    2.057676    2.666793
 C      0.607677   -1.048481    3.048574
 H      1.056207   -1.946907    3.388745
 Cl     1.916731    0.085931   -2.542302
 Cl    -0.740522    1.379614   -2.304613
 O      1.453096   -0.680936    0.026359
 O     -0.600005   -1.043915   -1.129706
 C      1.310586   -2.852524   -0.437856
 C      0.013585   -2.763334    0.231377
 C     -2.082213   -1.704966    0.511894
 C      3.374500   -1.731979   -0.693196
 C      3.916015   -2.877138   -1.302270
 C      1.823386   -4.032653   -0.983787
 C      3.104044   -4.021866   -1.452612
 C     -0.225934   -3.604821    1.325806
 C     -1.313098   -3.368510    2.104721
 C     -2.259055   -2.392840    1.727134
 H      1.186157   -4.905202   -1.047395
 H      3.522921   -4.904393   -1.924960
 H      0.509937   -4.358435    1.570533
 H     -1.476304   -3.937078    3.014277
 C     -3.400467   -2.128273    2.515596
 C     -3.135977   -0.935221   -0.033293
 N      2.048256   -1.761577   -0.368984
 N     -0.856902   -1.832063   -0.110907
 C      4.158572   -0.584831   -0.441299
 C      5.261478   -2.837127   -1.743808
 C      6.001580   -1.711966   -1.558117
 C      5.446466   -0.592885   -0.889847
 H      5.679071   -3.714268   -2.224789
 H      7.033825   -1.669743   -1.895068
 H      6.069086    0.274682   -0.703158
 C     -4.340439   -1.251549    2.066942
 C     -4.219592   -0.702518    0.774599
 H     -3.506438   -2.637368    3.466528
 H     -5.220908   -1.027583    2.662852
 H     -5.041836   -0.121120    0.375942
 C      3.640229    0.561707    0.336425
 C      3.509021    1.807291   -0.253765
 C      3.345166    0.402393    1.678562
 C      3.068377    2.885503    0.490087
 H      3.756345    1.937895   -1.298525
 C      2.915436    1.480998    2.426773
 H      3.468551   -0.562209    2.148962
 C      2.768476    2.723727    1.832577
 H      2.979294    3.859923    0.020561
 H      2.711072    1.352812    3.484061
 H      2.443784    3.575023    2.423170
 C     -3.212113   -0.541032   -1.454945
 C     -3.738319    0.691198   -1.816215
 C     -2.894710   -1.461991   -2.443063
 C     -3.924307    1.008303   -3.149811
 H     -3.986706    1.418352   -1.056147
 C     -3.073231   -1.146907   -3.776395
 H     -2.520502   -2.437475   -2.174689
 C     -3.587676    0.091134   -4.133795
 H     -4.334495    1.976326   -3.419799
 H     -2.822919   -1.876499   -4.540493
 H     -3.734366    0.337721   -5.181269
