57

 Si     0.589110   -1.216009    0.801042
 O      1.908299   -0.312484    1.072197
 C      2.977131    0.003200    0.241965
 C      3.561677   -1.240121   -0.356077
 H      2.630418    0.637757   -0.576155
 C      3.871424   -2.309975    0.469480
 C      3.772258   -1.344061   -1.721762
 C      4.377469   -3.481046   -0.062465
 H      3.691462   -2.228440    1.531763
 C      4.287034   -2.514358   -2.260751
 H      3.530129   -0.511903   -2.373297
 C      4.587729   -3.584617   -1.432455
 H      4.607192   -4.315906    0.592614
 H      4.449595   -2.589435   -3.332038
 H      4.986926   -4.503099   -1.853446
 C      3.989688    0.753980    1.076989
 C      3.406475    1.913020    1.775033
 H      4.825960    1.093021    0.452875
 H      4.387156    0.076903    1.834375
 C      2.937858    2.839303    2.379776
 H      2.551479    3.660767    2.933016
 Cl     0.471535   -2.592896   -0.672123
 Cl     0.883264   -2.473499    2.393133
 O     -0.934411   -0.771746    1.457592
 O      0.116535   -0.008087   -0.453162
 C     -2.418434   -0.027253   -0.139045
 C     -1.723877    1.237658    0.045045
 C      0.422850    2.189570    0.114954
 C     -2.426796   -2.262751    0.625393
 C     -3.497225   -2.586263   -0.224364
 C     -3.448310   -0.274049   -0.978619
 C     -4.020372   -1.572837   -1.046442
 C     -2.305362    2.420624    0.341985
 C     -1.509913    3.580761    0.529839
 C     -0.116169    3.456703    0.414201
 H     -3.822116    0.521571   -1.609416
 C     -5.087550   -1.882838   -1.916631
 H     -3.381406    2.471325    0.446766
 C     -2.066508    4.842766    0.831568
 C      0.714692    4.587952    0.582573
 H      1.476839    2.002803    0.025188
 N     -1.942037   -1.048226    0.640123
 N     -0.353667    1.155594   -0.068538
 H     -1.929069   -2.957051    1.289772
 C     -4.031891   -3.894903   -0.271986
 C     -5.593108   -3.151093   -1.950738
 C     -5.061340   -4.169488   -1.121576
 H     -3.609684   -4.661825    0.368398
 H     -5.495348   -1.105964   -2.553323
 H     -6.414962   -3.387125   -2.622379
 H     -5.479609   -5.171250   -1.168287
 C     -1.249898    5.924586    0.996548
 C      0.155011    5.798108    0.867954
 H      1.787445    4.472968    0.483025
 H     -3.142223    4.938798    0.926500
 H     -1.678598    6.896913    1.226322
 H      0.785244    6.673946    0.997071
