57

 Si     0.830655   -0.672317    2.331378
 O      0.994456   -1.882905    1.261844
 C      1.132918   -2.118644   -0.093823
 C      2.031065   -1.100280   -0.717470
 H      0.151731   -2.039987   -0.562814
 C      3.256616   -0.835940   -0.133252
 C      1.598506   -0.327139   -1.780351
 C      4.032910    0.216097   -0.580377
 H      3.591838   -1.440462    0.697409
 C      2.371650    0.727791   -2.236512
 H      0.647385   -0.539713   -2.251411
 C      3.586765    1.007948   -1.630435
 H      4.988967    0.420197   -0.107336
 H      2.025973    1.332657   -3.070353
 H      4.195039    1.835171   -1.985582
 C      1.628747   -3.535573   -0.260559
 C      0.685800   -4.510740    0.312283
 H      1.778093   -3.767356   -1.322899
 H      2.589251   -3.636816    0.246720
 C     -0.078279   -5.305457    0.788488
 H     -0.726229   -6.038849    1.204539
 Cl     2.283202    0.434607    3.197944
 Cl     0.481590   -1.939256    3.898713
 O      0.941681    0.366865    0.887000
 O     -0.785351   -0.090959    2.339007
 C     -0.889454    1.576043    0.356033
 C     -1.483226    0.260242    0.171112
 C     -1.814392   -1.808384    1.265302
 C      1.121441    2.622739    0.993866
 C      0.551326    3.898034    0.806850
 C     -1.495729    2.767377    0.154201
 C     -0.783970    3.975779    0.377351
 C     -2.079921   -0.199191   -0.949851
 C     -2.576814   -1.528916   -1.003891
 C     -2.443678   -2.346327    0.132457
 H     -2.529589    2.790809   -0.165370
 C     -1.372112    5.246246    0.189548
 H     -2.156976    0.447786   -1.813736
 C     -3.182442   -2.061972   -2.160881
 C     -2.917825   -3.677308    0.116320
 H     -1.623014   -2.346818    2.183329
 N      0.416969    1.544209    0.779342
 N     -1.375444   -0.577581    1.250332
 H      2.136098    2.446613    1.317918
 C      1.292699    5.078312    1.044265
 C     -0.643016    6.376430    0.423697
 C      0.703727    6.293405    0.855555
 H      2.321965    4.998718    1.376455
 H     -2.403159    5.309142   -0.139826
 H     -1.096860    7.353633    0.278696
 H      1.265183    7.206024    1.036677
 C     -3.629591   -3.353154   -2.162352
 C     -3.498570   -4.170526   -1.013632
 H     -2.803509   -4.286705    1.004640
 H     -3.286546   -1.437932   -3.041201
 H     -4.095024   -3.762116   -3.056012
 H     -3.863526   -5.193547   -1.039344
