57

 Si    -0.219320   -2.232887   -0.535472
 O      1.343124   -1.828289   -0.706128
 C      2.481510   -2.100299    0.043284
 C      2.292031   -1.588174    1.441736
 H      2.654423   -3.179385    0.063558
 C      1.744982   -0.329624    1.622954
 C      2.630468   -2.347233    2.549497
 C      1.508385    0.165309    2.890892
 H      1.498085    0.260401    0.763246
 C      2.407448   -1.854391    3.826980
 H      3.059978   -3.333947    2.418452
 C      1.840249   -0.600923    4.000908
 H      1.073375    1.151630    3.018314
 H      2.674290   -2.457183    4.690333
 H      1.662031   -0.218184    5.001790
 C      3.655464   -1.418285   -0.628440
 C      3.690084   -1.665188   -2.078313
 H      4.593856   -1.764744   -0.178793
 H      3.599293   -0.342602   -0.463518
 C      3.682613   -1.841074   -3.266443
 H      3.703824   -2.004066   -4.318514
 Cl    -1.454636   -3.262237   -1.770259
 Cl    -0.033767   -3.718851    0.864296
 O     -0.933496   -1.182275    0.608878
 O     -0.527033   -0.887598   -1.672106
 C     -2.040370    0.620819   -0.298676
 C     -0.704757    1.116861   -0.601907
 C      1.232262    0.546945   -1.815396
 C     -3.196175   -1.269102    0.519836
 C     -4.439017   -0.680960    0.229192
 C     -3.203543    1.244699   -0.592721
 C     -4.446131    0.608778   -0.330167
 C     -0.179361    2.306919   -0.237859
 C      1.129931    2.664390   -0.657757
 C      1.840933    1.769701   -1.474969
 H     -3.178437    2.222432   -1.055660
 C     -5.684135    1.216482   -0.631461
 H     -0.760078    2.980416    0.379237
 C      1.739007    3.882432   -0.284809
 C      3.145027    2.087921   -1.917953
 H      1.703366   -0.218266   -2.410149
 N     -2.084989   -0.627472    0.266851
 N      0.042750    0.256677   -1.369278
 H     -3.065971   -2.251694    0.954519
 C     -5.655107   -1.356791    0.485110
 C     -6.849464    0.551025   -0.378266
 C     -6.837434   -0.748969    0.185189
 H     -5.627035   -2.352086    0.915374
 H     -5.695691    2.210279   -1.064496
 H     -7.801814    1.021132   -0.611259
 H     -7.777883   -1.258648    0.376456
 C      3.000907    4.174122   -0.717635
 C      3.712839    3.269399   -1.543110
 H      3.674409    1.380890   -2.546771
 H      1.194534    4.576235    0.345807
 H      3.468435    5.112223   -0.428619
 H      4.715732    3.523315   -1.875785
