57

 Si     0.129050   -1.900033    0.397640
 O      1.523862   -1.100330    0.198507
 C      2.689109   -0.943861    0.925838
 C      3.876139   -1.262281    0.062361
 H      2.675142   -1.613164    1.789337
 C      3.717839   -1.405482   -1.306002
 C      5.141069   -1.399995    0.621226
 C      4.808716   -1.685430   -2.115413
 H      2.732754   -1.324907   -1.738293
 C      6.235011   -1.675926   -0.183783
 H      5.272546   -1.298106    1.693027
 C      6.071826   -1.817619   -1.555615
 H      4.669318   -1.803847   -3.186182
 H      7.219363   -1.783538    0.263286
 H      6.928710   -2.035552   -2.186735
 C      2.746567    0.487362    1.428771
 C      1.501560    0.875923    2.107518
 H      3.584139    0.606873    2.124799
 H      2.919057    1.170184    0.597682
 C      0.476632    1.179739    2.652844
 H     -0.418042    1.444860    3.159492
 Cl    -0.520320   -3.426997   -0.761081
 Cl     0.618692   -3.009099    2.054170
 O     -1.088056   -1.094791    1.291087
 O     -0.452436   -0.846385   -0.929269
 C     -2.603926    0.092102    0.025506
 C     -1.501604    1.024422   -0.161116
 C      0.692972    1.122731   -1.003504
 C     -3.122283   -2.026668    0.929443
 C     -4.427254   -1.968819    0.411671
 C     -3.847470    0.212787   -0.491307
 C     -4.804177   -0.820762   -0.306911
 C     -1.502936    2.347341    0.110678
 C     -0.352759    3.131450   -0.167796
 C      0.759882    2.506043   -0.752674
 H     -4.098959    1.092855   -1.068463
 C     -6.109960   -0.744808   -0.837808
 H     -2.383153    2.801370    0.547318
 C     -0.289414    4.511841    0.122831
 C      1.922686    3.252502   -1.051062
 H      1.494592    0.541298   -1.424476
 N     -2.289576   -1.037096    0.735615
 N     -0.375641    0.444378   -0.693007
 H     -2.722424   -2.853964    1.501013
 C     -5.344691   -3.029246    0.599064
 C     -6.983872   -1.776916   -0.648240
 C     -6.599665   -2.932037    0.076853
 H     -5.032781   -3.906444    1.155623
 H     -6.405547    0.137307   -1.394386
 H     -7.989135   -1.716119   -1.058134
 H     -7.312819   -3.740429    0.213559
 C      0.843415    5.217464   -0.163920
 C      1.961885    4.583257   -0.758746
 H      2.769813    2.752930   -1.507668
 H     -1.146601    4.998081    0.574715
 H      0.891339    6.279878    0.061869
 H      2.851811    5.165676   -0.981751
