57

 Si    -0.288651   -2.302580   -0.411095
 O      1.269383   -1.983300   -0.688505
 C      2.565614   -1.919655   -0.204790
 C      2.668919   -0.773085    0.765788
 H      3.194105   -1.696547   -1.076667
 C      1.647161   -0.541839    1.669698
 C      3.762335    0.080940    0.747420
 C      1.688633    0.548911    2.518625
 H      0.815620   -1.221229    1.711039
 C      3.818746    1.167641    1.605958
 H      4.575840   -0.099073    0.053472
 C      2.775147    1.412217    2.485890
 H      0.874010    0.717663    3.216281
 H      4.679693    1.828638    1.582612
 H      2.814321    2.267151    3.154571
 C      3.052775   -3.225037    0.379818
 C      2.957938   -4.309375   -0.609981
 H      4.100705   -3.108075    0.683015
 H      2.470433   -3.486938    1.261199
 C      2.870073   -5.175437   -1.436492
 H      2.802064   -5.957177   -2.155092
 Cl    -1.484548   -3.369231   -1.639866
 Cl    -0.086152   -3.707120    1.071428
 O     -1.096673   -1.294936    0.717184
 O     -0.609090   -0.929476   -1.517923
 C     -2.141420    0.559857   -0.144011
 C     -0.786280    1.038532   -0.375000
 C      1.148885    0.515662   -1.605808
 C     -3.352469   -1.359248    0.508462
 C     -4.574235   -0.738187    0.197086
 C     -3.282398    1.217294   -0.451624
 C     -4.542140    0.583469   -0.281787
 C     -0.250799    2.200653    0.055843
 C      1.058912    2.572104   -0.346260
 C      1.755450    1.726559   -1.223470
 H     -3.225575    2.219730   -0.855093
 C     -5.758943    1.225199   -0.598994
 H     -0.829884    2.847115    0.702474
 C      1.670366    3.769819    0.081524
 C      3.041614    2.083711   -1.685660
 H      1.608358   -0.219739   -2.243657
 N     -2.225633   -0.716979    0.342838
 N     -0.038238    0.201837   -1.168760
 H     -3.252853   -2.365727    0.893220
 C     -5.808227   -1.411087    0.358135
 C     -6.941709    0.561972   -0.437959
 C     -6.969212   -0.769913    0.044821
 H     -5.810463   -2.430813    0.727804
 H     -5.740192    2.243607   -0.970190
 H     -7.877476    1.058653   -0.682677
 H     -7.922853   -1.277091    0.163620
 C      2.917363    4.096225   -0.366650
 C      3.609563    3.248349   -1.264400
 H      3.560249    1.421488   -2.369308
 H      1.137208    4.422210    0.763543
 H      3.386220    5.020049   -0.037122
 H      4.598409    3.531638   -1.614525
