57

 Si     0.566817   -2.190428    0.450709
 O     -0.919933   -1.923714    1.044086
 C     -2.189692   -2.317670    0.638827
 C     -2.440844   -1.828265   -0.758105
 H     -2.258948   -3.408109    0.668350
 C     -2.083728   -0.531335   -1.084799
 C     -3.000293   -2.643185   -1.727945
 C     -2.253114   -0.051010   -2.368952
 H     -1.665161    0.100797   -0.327524
 C     -3.185062   -2.166324   -3.017615
 H     -3.284304   -3.660117   -1.482082
 C     -2.806029   -0.872706   -3.342956
 H     -1.963157    0.966209   -2.612856
 H     -3.622924   -2.812919   -3.772678
 H     -2.946551   -0.502281   -4.354409
 C     -3.192326   -1.725658    1.607480
 C     -2.805680   -1.936023    3.011241
 H     -4.182006   -2.165403    1.434280
 H     -3.283748   -0.653944    1.432771
 C     -2.457675   -2.078703    4.151934
 H     -2.175554   -2.214181    5.169715
 Cl     2.181671   -3.073533    1.300566
 Cl     0.144706   -3.721123   -0.845503
 O      0.842606   -1.109407   -0.844939
 O      1.046443   -0.793821    1.459470
 C      1.976560    0.811648   -0.276098
 C      0.733670    1.190623    0.382337
 C     -0.733631    0.477919    2.081739
 C      3.042196   -0.986292   -1.375685
 C      4.255076   -0.279076   -1.435937
 C      3.110797    1.547311   -0.311461
 C      4.290302    1.021009   -0.902153
 C      0.019305    2.318867    0.178574
 C     -1.153500    2.565564    0.941607
 C     -1.525432    1.630900    1.922385
 H      3.118528    2.531171    0.138911
 C      5.499430    1.747931   -0.951661
 H      0.342581    3.026853   -0.573677
 C     -1.954313    3.712555    0.750660
 C     -2.681417    1.840786    2.708244
 H     -0.948944   -0.310461    2.784093
 N      1.985469   -0.442799   -0.829263
 N      0.309706    0.285497    1.325116
 H      2.893491   -1.988046   -1.757426
 C      5.414939   -0.847463   -2.012961
 C      6.610257    1.185383   -1.512387
 C      6.570293   -0.125612   -2.048534
 H      5.366498   -1.852854   -2.417130
 H      5.532615    2.750394   -0.540269
 H      7.540451    1.747151   -1.549691
 H      7.467895   -0.551918   -2.488264
 C     -3.070821    3.899226    1.514610
 C     -3.439215    2.955875    2.504955
 H     -2.948051    1.105265    3.458862
 H     -1.672563    4.436146   -0.005985
 H     -3.686928    4.782505    1.365091
 H     -4.330762    3.126794    3.102331
