57

 Si    -0.571361   -2.189333   -0.454699
 O      0.916581   -1.926380   -1.047063
 C      2.184642   -2.322147   -0.638056
 C      2.433171   -1.832178    0.759130
 H      2.252011   -3.412717   -0.666263
 C      2.080310   -0.533572    1.083452
 C      2.985955   -2.648487    1.731705
 C      2.246927   -0.052780    2.367833
 H      1.666997    0.099539    0.324183
 C      3.168016   -2.171267    3.021568
 H      3.266597   -3.666806    1.487762
 C      2.793036   -0.875800    3.344467
 H      1.960308    0.965859    2.609733
 H      3.600710   -2.818894    3.778722
 H      2.931701   -0.505075    4.356069
 C      3.190701   -1.733092   -1.605060
 C      2.805655   -1.943967   -3.009240
 H      3.283612   -0.661383   -1.431292
 H      4.178861   -2.175302   -1.429738
 C      2.459107   -2.087127   -4.150312
 H      2.178128   -2.223431   -5.168300
 Cl    -2.188568   -3.066830   -1.306124
 Cl    -0.154408   -3.723734    0.838834
 O     -0.843907   -1.108800    0.841894
 O     -1.046661   -0.790604   -1.462362
 C     -1.973626    0.815037    0.273826
 C     -0.729721    1.192026   -0.383857
 C      0.737122    0.477042   -2.082811
 C     -3.042945   -0.980714    1.373384
 C     -4.254130   -0.270702    1.434381
 C     -3.106139    1.553276    0.309769
 C     -4.286643    1.029511    0.900735
 C     -0.012369    2.318047   -0.178150
 C      1.160863    2.562958   -0.940995
 C      1.531292    1.628148   -1.922193
 H     -3.111946    2.537134   -0.140636
 C     -5.494152    1.759078    0.950659
 H     -0.334195    3.025964    0.574782
 C      1.963890    3.708375   -0.749168
 C      2.688949    1.835442   -2.706424
 H      0.951108   -0.311987   -2.784843
 N     -1.984998   -0.439313    0.827253
 N     -0.307421    0.286852   -1.327207
 H     -2.896399   -1.983048    1.754457
 C     -5.415064   -0.836584    2.011721
 C     -6.606067    1.198909    1.511613
 C     -6.568809   -0.112193    2.047703
 H     -5.368707   -1.842106    2.415813
 H     -5.525305    2.761624    0.539307
 H     -7.535049    1.762665    1.549126
 H     -7.467204   -0.536556    2.487696
 C      3.081463    3.892848   -1.511946
 C      3.449172    2.948542   -2.501796
 H      2.954842    1.099398   -3.456804
 H      1.682680    4.432332    0.007330
 H      3.699149    4.774963   -1.362067
 H      4.342239    3.117338   -3.097505
