57

 Si    -0.700348   -2.165530   -1.386133
 O      0.777949   -2.258260   -0.722597
 C      1.163942   -2.439046    0.602456
 C      1.870843   -1.201652    1.066584
 H      0.279728   -2.579164    1.220233
 C      3.152248   -0.907219    0.625821
 C      1.235390   -0.325399    1.932139
 C      3.805624    0.229561    1.069666
 H      3.651735   -1.582568   -0.055682
 C      1.879937    0.820025    2.374117
 H      0.233419   -0.547710    2.272537
 C      3.171369    1.094520    1.950536
 H      4.816509    0.435373    0.734035
 H      1.377426    1.491228    3.064830
 H      3.686136    1.980200    2.310299
 C      2.003920   -3.692990    0.677989
 C      1.200760   -4.877422    0.333765
 H      2.414162   -3.820187    1.687163
 H      2.836383   -3.615128   -0.021881
 C      0.524093   -5.826868    0.047995
 H     -0.064595   -6.676194   -0.204976
 Cl    -0.146983   -3.005336   -3.169892
 Cl    -2.291227   -3.342778   -0.990175
 O     -1.076185   -1.187577    0.101653
 O     -0.923808   -0.634864   -2.124718
 C     -1.760202    0.949263   -0.272257
 C     -0.396613    1.126451   -0.746560
 C      1.209988    0.145579   -2.172626
 C     -3.237148   -0.667999    0.590379
 C     -4.278825    0.277747    0.665884
 C     -2.715230    1.905337   -0.222261
 C     -4.016221    1.593829    0.252324
 C      0.480446    2.075444   -0.353987
 C      1.793552    2.099429   -0.890449
 C      2.171838    1.095866   -1.797810
 H     -2.481699    2.905647   -0.562890
 C     -5.050936    2.553124    0.313808
 H      0.178291    2.807834    0.382137
 C      2.733874    3.088760   -0.535820
 C      3.479738    1.071887   -2.333631
 H      1.371188   -0.659501   -2.876105
 N     -2.057804   -0.329971    0.137951
 N      0.004006    0.204699   -1.675638
 H     -3.336130   -1.703463    0.880483
 C     -5.563512   -0.077139    1.138521
 C     -6.286086    2.194430    0.771636
 C     -6.546862    0.865855    1.188831
 H     -5.748545   -1.098494    1.452763
 H     -4.851265    3.569312   -0.007069
 H     -7.082194    2.933311    0.818147
 H     -7.537669    0.602656    1.549267
 C      3.989905    3.057632   -1.068377
 C      4.370851    2.037123   -1.973129
 H      3.750305    0.286386   -3.030651
 H      2.445537    3.867611    0.160185
 H      4.711596    3.823983   -0.796237
 H      5.377401    2.032355   -2.382587
