57

 Si    -0.998069   -0.826743    1.128586
 O     -1.616993    0.254905    0.092771
 C     -2.910032    0.701914   -0.171033
 C     -3.849832   -0.466249   -0.203298
 H     -3.218198    1.401140    0.612445
 C     -3.524765   -1.562122   -0.988754
 C     -5.017489   -0.480146    0.541494
 C     -4.353776   -2.667830   -1.029081
 H     -2.609730   -1.548141   -1.563366
 C     -5.855279   -1.585512    0.502885
 H     -5.273590    0.370347    1.163187
 C     -5.524720   -2.680438   -0.280814
 H     -4.088375   -3.521373   -1.645287
 H     -6.767923   -1.590771    1.091857
 H     -6.179855   -3.546483   -0.309774
 C     -2.877487    1.405022   -1.508267
 C     -1.977632    2.570070   -1.545427
 H     -3.884789    1.745006   -1.779557
 H     -2.545340    0.695294   -2.266782
 C     -1.261567    3.531115   -1.624241
 H     -0.651563    4.393035   -1.716204
 Cl    -1.278256   -2.823488    1.249139
 Cl    -2.126470   -0.303721    2.768554
 O      0.110377   -1.079025   -0.280622
 O      0.428500   -0.211811    1.848062
 C      2.297434   -0.585105    0.113481
 C      1.797037    0.771961    0.282975
 C      0.224742    2.027995    1.523342
 C      1.605090   -2.800871   -0.276196
 C      2.931982   -3.266418   -0.175085
 C      3.590719   -0.965544    0.219165
 C      3.949425   -2.331713    0.075314
 C      2.243283    1.884859   -0.339659
 C      1.686497    3.153289   -0.024974
 C      0.655975    3.223317    0.928043
 H      4.347053   -0.221154    0.431397
 C      5.283591   -2.780839    0.186567
 H      3.030591    1.802455   -1.077425
 C      2.139521    4.346318   -0.627508
 C      0.086495    4.468910    1.278841
 H     -0.561536    1.948967    2.261998
 N      1.329301   -1.531333   -0.132750
 N      0.793439    0.895332    1.207966
 H      0.752258   -3.435957   -0.464956
 C      3.244414   -4.638136   -0.314260
 C      5.569019   -4.109108    0.050105
 C      4.539988   -5.048863   -0.202776
 H      2.445896   -5.346647   -0.505291
 H      6.070909   -2.061361    0.381443
 H      6.596517   -4.453642    0.136426
 H      4.789241   -6.101466   -0.306808
 C      1.583019    5.542555   -0.274214
 C      0.546308    5.607671    0.688632
 H     -0.708695    4.498108    2.015601
 H      2.933969    4.300599   -1.363708
 H      1.939734    6.460500   -0.735375
 H      0.119634    6.571327    0.953213
