63

 Si     0.487952   -1.417350    2.275017
 O     -0.410413   -2.356105    1.300693
 C     -0.640950   -2.616623   -0.037362
 C      0.630206   -2.531966   -0.818478
 H     -1.331262   -1.865995   -0.423442
 C      1.744801   -3.214760   -0.366417
 C      0.743183   -1.680468   -1.903146
 C      2.974154   -3.025439   -0.968649
 H      1.655096   -3.878876    0.481241
 C      1.970903   -1.486369   -2.514255
 H     -0.128487   -1.154038   -2.268467
 C      3.091913   -2.151886   -2.041614
 H      3.843893   -3.560109   -0.598345
 H      2.053728   -0.815133   -3.364623
 H      4.056540   -2.001043   -2.518234
 C     -1.305324   -3.970414   -0.130074
 C     -2.579034   -4.005158    0.607512
 H     -1.494302   -4.233037   -1.178714
 H     -0.636304   -4.722150    0.291381
 C     -3.613481   -4.040359    1.216452
 H     -4.531289   -4.111614    1.748539
 Cl     2.406874   -1.683841    2.851549
 Cl    -0.399770   -2.139271    3.972912
 O      1.063486   -0.706344    0.744933
 O     -0.229674    0.130388    2.471436
 C      0.582417    1.481294    0.478187
 C     -0.764777    0.938245    0.386858
 C     -2.295707   -0.339287    1.660913
 C      2.806562    0.738283    0.725338
 C      3.279854    2.064586    0.639822
 C      0.946872    2.788570    0.433701
 C      2.345026    3.103343    0.508509
 C     -1.605048    1.003619   -0.675896
 C     -2.896026    0.386225   -0.560303
 C     -3.246630   -0.274173    0.629329
 C      2.822553    4.429975    0.451194
 C     -3.838463    0.412654   -1.607748
 C     -4.509791   -0.886759    0.772879
 H     -2.420166   -0.878589    2.589445
 N      1.528966    0.499612    0.661558
 N     -1.140739    0.241650    1.507791
 H      3.433021   -0.129373    0.863480
 C      4.662420    2.344172    0.710533
 C      4.162386    4.688451    0.520033
 C      5.096468    3.635712    0.650741
 H      5.361349    1.521502    0.814422
 H      2.120075    5.246064    0.350394
 H      4.516128    5.715313    0.473681
 H      6.158235    3.860115    0.704440
 C     -5.057420   -0.189173   -1.459030
 C     -5.402032   -0.846178   -0.257070
 H     -4.745545   -1.387425    1.704176
 H     -3.595825    0.916233   -2.533371
 H     -5.773799   -0.159526   -2.276528
 H     -6.376269   -1.316576   -0.158719
 C     -0.074280    3.880681    0.327635
 H      0.056126    4.442690   -0.598381
 H     -1.082097    3.482896    0.353661
 H      0.041130    4.572678    1.162499
 C     -1.201396    1.685233   -1.948684
 H     -1.336824    1.008396   -2.791665
 H     -1.817825    2.568777   -2.123234
 H     -0.161368    1.988047   -1.920432
