63

 Si    -0.359564   -1.814033   -1.497837
 O     -1.796931   -2.416248   -0.965284
 C     -2.156027   -2.876116    0.289447
 C     -2.836797   -1.739801    0.999979
 H     -1.265637   -3.161852    0.853882
 C     -4.034258   -1.243493    0.505824
 C     -2.220840   -1.092019    2.058266
 C     -4.609906   -0.109943    1.056555
 H     -4.509102   -1.736767   -0.331599
 C     -2.784805    0.049709    2.608372
 H     -1.281504   -1.467586    2.443760
 C     -3.980436    0.544974    2.108191
 H     -5.549438    0.264848    0.660492
 H     -2.289216    0.552827    3.434013
 H     -4.424551    1.437620    2.539836
 C     -3.045374   -4.088109    0.134250
 C     -2.328706   -5.237539   -0.440942
 H     -3.456644   -4.386847    1.106437
 H     -3.878142   -3.833092   -0.521840
 C     -1.746952   -6.180613   -0.903174
 H     -1.246029   -7.025601   -1.310544
 Cl    -1.163182   -1.246703   -3.271935
 Cl     0.775561   -3.472760   -1.319391
 O     -0.284869   -0.831060   -0.081579
 O      1.013993   -0.791675   -1.999435
 C      0.653203    1.208241   -0.490434
 C      1.875530    0.448157   -0.273363
 C      3.062231   -1.371727   -1.186226
 C     -1.685726    0.890170   -0.543895
 C     -1.887856    2.241921   -0.869790
 C      0.550071    2.511732   -0.857181
 C     -0.761781    3.064413   -1.036213
 C      2.812553    0.669234    0.683615
 C      3.978145   -0.166937    0.698203
 C      4.108614   -1.181952   -0.261976
 C     -0.970014    4.415146   -1.385795
 C      5.013487   -0.002528    1.642294
 C      5.249240   -2.015221   -0.280947
 H      3.047009   -2.149717   -1.934724
 N     -0.477903    0.440408   -0.362764
 N      2.010865   -0.603140   -1.151938
 H     -2.468710    0.160528   -0.435337
 C     -3.192385    2.752263   -1.050935
 C     -2.236571    4.899453   -1.554558
 C     -3.363710    4.062101   -1.386757
 H     -4.037617    2.087629   -0.915573
 H     -0.119630    5.069971   -1.517982
 H     -2.381862    5.943250   -1.821938
 H     -4.361939    4.467389   -1.527049
 C      6.112424   -0.814136    1.614089
 C      6.235902   -1.833341    0.642448
 H      5.320262   -2.793414   -1.033021
 H      4.935111    0.773689    2.391180
 H      6.903248   -0.675230    2.347033
 H      7.116990   -2.469064    0.636346
 C      1.766540    3.354371   -1.096762
 H      1.809355    4.181544   -0.386529
 H      2.675271    2.771353   -1.005075
 H      1.729924    3.772996   -2.102862
 C      2.638672    1.746168    1.712196
 H      2.692627    1.311397    2.710796
 H      3.428027    2.494308    1.626505
 H      1.679756    2.240456    1.609181
