63

 Si     0.677226   -0.738215    2.159954
 O      2.318423   -0.679505    2.036596
 C      3.162826   -1.305237    1.136016
 C      3.459263   -0.314434    0.045245
 H      2.666602   -2.173910    0.697737
 C      4.152240    0.848680    0.347416
 C      2.933275   -0.478122   -1.225800
 C      4.315896    1.841099   -0.605470
 H      4.547386    0.988453    1.344616
 C      3.082779    0.515344   -2.182246
 H      2.381494   -1.377909   -1.466326
 C      3.773546    1.678603   -1.874507
 H      4.864184    2.744730   -0.354692
 H      2.660169    0.378384   -3.173736
 H      3.894412    2.455996   -2.623791
 C      4.404463   -1.767120    1.863279
 C      4.117709   -2.830304    2.839377
 H      5.146735   -2.142886    1.148099
 H      4.841022   -0.918221    2.390281
 C      3.890192   -3.702703    3.632244
 H      3.705151   -4.476154    4.338226
 Cl     0.651361    0.725195    3.564563
 Cl     0.450136   -2.684012    2.642522
 O      0.575826   -0.490052    0.455058
 O     -1.078859   -0.435865    2.073698
 C     -1.209367    0.803429   -0.131315
 C     -1.885416   -0.484434   -0.072990
 C     -2.384616   -2.200341    1.463283
 C      0.931908    1.735821    0.215983
 C      0.445796    3.022994   -0.068780
 C     -1.771627    2.017251   -0.365786
 C     -0.920490    3.172185   -0.357419
 C     -2.531383   -1.111275   -1.089241
 C     -3.179834   -2.360702   -0.813233
 C     -3.120255   -2.895050    0.482933
 C     -1.407011    4.469701   -0.621800
 C     -3.889550   -3.077185   -1.799869
 C     -3.756548   -4.118685    0.789205
 H     -2.244013   -2.546808    2.476165
 N      0.127695    0.713667    0.167228
 N     -1.792465   -1.078707    1.165386
 H      1.947410    1.508574    0.488715
 C      1.308090    4.141395   -0.041569
 C     -0.563231    5.544197   -0.596466
 C      0.810727    5.383182   -0.302994
 H      2.356574    3.988172    0.185801
 H     -2.454803    4.611527   -0.848591
 H     -0.951933    6.538047   -0.804519
 H      1.463837    6.251285   -0.287224
 C     -4.501472   -4.259468   -1.492080
 C     -4.436988   -4.789779   -0.183263
 H     -3.690491   -4.507849    1.799365
 H     -3.949449   -2.684357   -2.805644
 H     -5.045894   -4.800472   -2.262031
 H     -4.929463   -5.731717    0.041950
 C     -3.244645    2.163155   -0.602978
 H     -3.438191    2.542357   -1.607613
 H     -3.759267    1.216999   -0.484222
 H     -3.662890    2.870945    0.113103
 C     -2.560070   -0.531101   -2.471515
 H     -2.156977   -1.254385   -3.181017
 H     -3.582368   -0.296778   -2.771833
 H     -1.964786    0.372372   -2.533482
