63

 Si     0.433867   -2.454804    0.806034
 O     -0.919177   -2.183794   -0.031131
 C     -2.227260   -2.615846   -0.121847
 C     -3.059439   -1.433854   -0.530504
 H     -2.566866   -3.003690    0.842946
 C     -2.517011   -0.523881   -1.424088
 C     -4.354603   -1.253830   -0.070679
 C     -3.258120    0.560825   -1.857475
 H     -1.507372   -0.679299   -1.773720
 C     -5.103777   -0.169919   -0.506239
 H     -4.785498   -1.965257    0.626393
 C     -4.557587    0.738164   -1.399887
 H     -2.827848    1.264107   -2.563467
 H     -6.120031   -0.037440   -0.145906
 H     -5.146444    1.582881   -1.744740
 C     -2.322018   -3.713632   -1.160193
 C     -1.560224   -4.911598   -0.774932
 H     -3.369634   -3.998423   -1.312901
 H     -1.933726   -3.331634   -2.106125
 C     -0.946587   -5.889955   -0.447628
 H     -0.402185   -6.756215   -0.156726
 Cl    -0.416782   -3.384567    2.434693
 Cl     1.911193   -3.792597    0.476697
 O      1.080585   -1.426227   -0.545268
 O      0.838931   -1.078256    1.746781
 C      2.020226    0.512960    0.174321
 C      0.632111    0.825390    0.484183
 C     -1.144224    0.024041    1.823762
 C      3.335018   -1.204279   -0.762825
 C      4.506746   -0.442567   -0.569450
 C      3.102029    1.289829    0.443570
 C      4.396536    0.810369    0.051893
 C     -0.108493    1.859491    0.011666
 C     -1.438391    2.031581    0.521812
 C     -1.955672    1.104421    1.440305
 C      5.574657    1.556803    0.266849
 C     -2.250980    3.119299    0.145625
 C     -3.255631    1.256229    1.966995
 H     -1.440249   -0.772277    2.492258
 N      2.179379   -0.734780   -0.388063
 N      0.068631   -0.066101    1.361443
 H      3.316773   -2.194191   -1.192739
 C      5.766731   -0.941655   -0.967039
 C      6.788116    1.064878   -0.123445
 C      6.889507   -0.199077   -0.747707
 H      5.821979   -1.915379   -1.441298
 H      5.513769    2.525985    0.742761
 H      7.687282    1.651427    0.047487
 H      7.862996   -0.575322   -1.049953
 C     -3.504329    3.261336    0.670011
 C     -4.016942    2.321019    1.589722
 H     -3.626968    0.521239    2.671725
 H     -1.874619    3.849249   -0.557513
 H     -4.116498    4.110240    0.375881
 H     -5.017097    2.450116    1.993107
 C      2.965922    2.605985    1.147836
 H      3.278946    3.425073    0.498565
 H      1.944678    2.783465    1.462560
 H      3.601752    2.614254    2.033461
 C      0.436505    2.801470   -1.019053
 H     -0.232675    2.827957   -1.879329
 H      0.514235    3.813407   -0.618884
 H      1.415856    2.486851   -1.360591
