63

 Si    -0.043997   -2.541096   -0.323750
 O      1.487573   -2.181348   -0.683152
 C      2.804183   -2.080349   -0.266778
 C      2.926741   -0.931233    0.698275
 H      3.380727   -1.841089   -1.169600
 C      1.958319   -0.739388    1.667381
 C      3.987246   -0.040199    0.615884
 C      2.019527    0.345749    2.522325
 H      1.153835   -1.446188    1.755618
 C      4.063835    1.041524    1.478723
 H      4.760535   -0.189308   -0.129280
 C      3.073069    1.244256    2.427848
 H      1.247487    0.480670    3.273540
 H      4.899586    1.730547    1.406135
 H      3.129584    2.094078    3.101819
 C      3.354637   -3.372106    0.291443
 C      3.227140   -4.461485   -0.689188
 H      4.415254   -3.231015    0.534049
 H      2.829358   -3.644695    1.204824
 C      3.109718   -5.331948   -1.507418
 H      3.016731   -6.117537   -2.218935
 Cl    -1.282625   -3.684296   -1.439857
 Cl     0.271140   -3.900796    1.183374
 O     -0.787300   -1.500712    0.816877
 O     -0.465731   -1.231397   -1.472768
 C     -1.959625    0.237592   -0.101952
 C     -0.618763    0.746559   -0.351976
 C      1.248276    0.245939   -1.697158
 C     -3.039472   -1.697590    0.723664
 C     -4.299449   -1.170820    0.387141
 C     -3.132218    0.804001   -0.489778
 C     -4.350525    0.093190   -0.223951
 C     -0.065134    1.891662    0.118118
 C      1.225567    2.270435   -0.379522
 C      1.861372    1.460922   -1.332106
 C     -5.615157    0.614100   -0.569641
 C      1.870555    3.456073    0.027186
 C      3.105952    1.836258   -1.880869
 H      1.682876   -0.481410   -2.361071
 N     -1.964626   -1.002603    0.481146
 N      0.096351   -0.076874   -1.191863
 H     -2.872492   -2.667147    1.173329
 C     -5.482387   -1.900253    0.643353
 C     -6.752609   -0.098882   -0.314552
 C     -6.690289   -1.371884    0.297411
 H     -5.408393   -2.875309    1.112693
 H     -5.682389    1.586456   -1.037928
 H     -7.719878    0.317243   -0.585322
 H     -7.606171   -1.923789    0.489834
 C      3.077176    3.807218   -0.507474
 C      3.703001    2.993144   -1.477183
 H      3.570772    1.193082   -2.619421
 H      1.400940    4.092363    0.764551
 H      3.560963    4.726416   -0.187001
 H      4.660075    3.291323   -1.896138
 C     -3.165352    2.122266   -1.202395
 H     -3.680226    2.871631   -0.598859
 H     -2.165447    2.479121   -1.417718
 H     -3.702009    2.018519   -2.145580
 C     -0.777792    2.745349    1.122560
 H     -0.149504    2.868913    2.004890
 H     -0.987955    3.734884    0.714076
 H     -1.712587    2.291262    1.432118
