63

 Si    -0.028648    2.466743    0.882390
 O      1.244173    2.020415   -0.003944
 C      2.600948    2.248373   -0.120683
 C      3.229306    0.965052   -0.584639
 H      3.020084    2.548238    0.844144
 C      2.531482    0.178545   -1.487555
 C      4.491333    0.572810   -0.166657
 C      3.084311   -0.994091   -1.970208
 H      1.550760    0.499600   -1.805238
 C      5.052107   -0.600366   -0.651495
 H      5.044512    1.187641    0.535965
 C      4.350315   -1.385098   -1.553244
 H      2.533409   -1.600229   -2.682439
 H      6.043217   -0.900014   -0.322784
 H      4.791416   -2.300786   -1.935518
 C      2.839069    3.349687   -1.131603
 C      2.277979    4.637493   -0.694909
 H      3.914233    3.476889   -1.304584
 H      2.376551    3.060517   -2.077092
 C      1.826305    5.686304   -0.324960
 H      1.425687    6.615127    0.003879
 Cl     0.997479    3.205028    2.508255
 Cl    -1.291383    4.024142    0.635375
 O     -0.861261    1.591524   -0.475096
 O     -0.614004    1.139117    1.798216
 C     -2.069158   -0.201364    0.222822
 C     -0.737915   -0.732929    0.479457
 C      1.175244   -0.258258    1.785646
 C     -3.127762    1.723793   -0.630968
 C     -4.397344    1.145531   -0.420532
 C     -3.250174   -0.810831    0.505516
 C     -4.465248   -0.126730    0.166748
 C     -0.179489   -1.853592   -0.043580
 C      1.120716   -2.244420    0.420145
 C      1.798779   -1.438274    1.348178
 C     -5.738279   -0.688668    0.401155
 C      1.744505   -3.432257   -0.010080
 C      3.072681   -1.805711    1.830709
 H      1.609118    0.461914    2.465189
 N     -2.048915    1.072194   -0.302533
 N     -0.019725    0.033608    1.361597
 H     -2.968429    2.711328   -1.036568
 C     -5.575411    1.843385   -0.766884
 C     -6.871265   -0.004963    0.061102
 C     -6.793014    1.276428   -0.530110
 H     -5.492171    2.826937   -1.216097
 H     -5.814645   -1.668625    0.852078
 H     -7.845470   -0.450132    0.246816
 H     -7.704741    1.805954   -0.792678
 C      2.973553   -3.782783    0.471950
 C      3.649378   -2.962660    1.401377
 H      3.571763   -1.159183    2.543198
 H      1.240781   -4.072542   -0.720834
 H      3.438859   -4.706426    0.136917
 H      4.627363   -3.257835    1.770308
 C     -3.299773   -2.152404    1.172152
 H     -3.760503   -2.892452    0.516087
 H     -2.309426   -2.497585    1.443216
 H     -3.898616   -2.086906    2.080967
 C     -0.891948   -2.668705   -1.080261
 H     -0.258317   -2.773179   -1.961278
 H     -1.115107   -3.667919   -0.703421
 H     -1.819275   -2.196398   -1.383084
