63

 Si     0.507955   -2.050064    0.461562
 O      1.880672   -1.226232    0.216397
 C      3.057186   -1.033564    0.915479
 C      4.232302   -1.317715    0.023803
 H      3.085762   -1.702027    1.779295
 C      4.047033   -1.461180   -1.341099
 C      5.512638   -1.424826    0.553509
 C      5.126392   -1.708660   -2.176129
 H      3.050665   -1.405176   -1.750544
 C      6.595062   -1.668909   -0.276987
 H      5.665484   -1.323868    1.622576
 C      6.404882   -1.809470   -1.645450
 H      4.966062   -1.826493   -3.244029
 H      7.591684   -1.752362    0.147489
 H      7.252842   -2.001845   -2.296604
 C      3.084910    0.398772    1.416909
 C      1.852978    0.743768    2.141018
 H      3.943009    0.546333    2.081822
 H      3.203284    1.085849    0.580322
 C      0.837789    1.006784    2.724188
 H     -0.049329    1.231684    3.261843
 Cl    -0.127599   -3.620060   -0.649067
 Cl     1.053899   -3.117544    2.128885
 O     -0.699122   -1.239906    1.363792
 O     -0.122976   -1.049764   -0.886292
 C     -2.269646   -0.193995    0.053205
 C     -1.203977    0.787242   -0.092649
 C      0.965289    0.945407   -0.996941
 C     -2.674673   -2.298274    1.052870
 C     -3.961824   -2.349108    0.489150
 C     -3.481054   -0.182641   -0.561322
 C     -4.371921   -1.283791   -0.329310
 C     -1.225531    2.093384    0.273126
 C     -0.080432    2.899994   -0.035552
 C      1.008674    2.323238   -0.705741
 C     -5.657171   -1.345738   -0.907398
 C     -0.007589    4.267046    0.305370
 C      2.144152    3.095266   -1.035563
 H      1.767905    0.393100   -1.453119
 N     -1.909487   -1.268235    0.826569
 N     -0.078158    0.245243   -0.668817
 H     -2.237028   -3.072164    1.669056
 C     -4.812330   -3.453298    0.722339
 C     -6.472340   -2.417059   -0.672742
 C     -6.048853   -3.486138    0.149894
 H     -4.463303   -4.261993    1.355341
 H     -5.998149   -0.536963   -1.538973
 H     -7.460921   -2.449507   -1.124150
 H     -6.711578   -4.329684    0.322202
 C      1.098451    5.002886   -0.012790
 C      2.188595    4.414265   -0.693467
 H      2.968771    2.622900   -1.557718
 H     -0.835430    4.732931    0.822243
 H      1.141475    6.055122    0.257062
 H      3.058326    5.016495   -0.941506
 C     -3.879049    0.930890   -1.482543
 H     -4.742458    1.467732   -1.086267
 H     -3.068135    1.635340   -1.623117
 H     -4.150670    0.523348   -2.456552
 C     -2.402682    2.682696    0.990289
 H     -2.075511    3.121729    1.933187
 H     -2.864992    3.470576    0.393717
 H     -3.150211    1.928232    1.207929
