63

 Si     0.802529   -1.979740    0.379031
 O      2.036832   -0.944550    0.212802
 C      3.162959   -0.616460    0.943109
 C      4.374452   -0.657367    0.055279
 H      3.286920   -1.326917    1.764229
 C      4.224522   -0.806629   -1.313292
 C      5.650627   -0.534680    0.592222
 C      5.334580   -0.833495   -2.144612
 H      3.236810   -0.929218   -1.729207
 C      6.762680   -0.557826   -0.234407
 H      5.778312   -0.427407    1.663858
 C      6.607367   -0.705145   -1.606671
 H      5.202922   -0.959130   -3.215547
 H      7.755757   -0.462701    0.195890
 H      7.478861   -0.724506   -2.254868
 C      2.961894    0.768082    1.532374
 C      1.678933    0.876184    2.241430
 H      3.775046    1.001176    2.228392
 H      2.988435    1.518021    0.743143
 C      0.625325    0.949092    2.810993
 H     -0.295146    1.005393    3.336569
 Cl     0.433844   -3.568713   -0.821324
 Cl     1.474130   -3.035618    2.007329
 O     -0.532212   -1.412722    1.286464
 O      0.054915   -1.016747   -0.935216
 C     -2.212783   -0.537726   -0.013266
 C     -1.301344    0.595723   -0.078913
 C      0.836933    1.120148   -0.916759
 C     -2.322944   -2.730107    0.865611
 C     -3.576925   -2.937728    0.264252
 C     -3.399991   -0.670026   -0.660056
 C     -4.123472   -1.900395   -0.509223
 C     -1.522419    1.862159    0.354051
 C     -0.503667    2.843768    0.117875
 C      0.670342    2.471233   -0.553642
 C     -5.374106   -2.117492   -1.124521
 C     -0.639493    4.185490    0.532262
 C      1.685124    3.418490   -0.812715
 H      1.721949    0.716958   -1.376762
 N     -1.713546   -1.588506    0.713617
 N     -0.097280    0.257519   -0.652298
 H     -1.788902   -3.463863    1.454257
 C     -4.259944   -4.165349    0.417027
 C     -6.027089   -3.307600   -0.967561
 C     -5.466837   -4.346908   -0.189851
 H     -3.808225   -4.947878    1.017105
 H     -5.818243   -1.333772   -1.722687
 H     -6.991184   -3.459053   -1.446824
 H     -6.001227   -5.286397   -0.079200
 C      0.351205    5.092069    0.281935
 C      1.528140    4.708593   -0.400706
 H      2.579694    3.101872   -1.337393
 H     -1.535975    4.495385    1.051701
 H      0.233412    6.122499    0.607839
 H      2.303462    5.444729   -0.594634
 C     -3.939049    0.422201   -1.533822
 H     -4.876717    0.809224   -1.131628
 H     -3.235231    1.241239   -1.620511
 H     -4.133774    0.031924   -2.532941
 C     -2.786992    2.231886    1.069180
 H     -2.546167    2.659957    2.042629
 H     -3.348778    2.976129    0.502714
 H     -3.419249    1.365230    1.225889
