57

 Si     0.206215   -2.081489    0.379021
 O      1.415838   -1.020961    0.485049
 C      2.578579   -0.840281    1.207897
 C      3.685308   -0.805489    0.197060
 H      2.710641   -1.688823    1.885205
 C      3.677848   -1.803957   -0.767565
 C      4.648891    0.185952    0.136251
 C      4.605678   -1.805692   -1.790513
 H      2.928198   -2.579149   -0.719043
 C      5.589582    0.187223   -0.885630
 H      4.686789    0.963025    0.888312
 C      5.566265   -0.802683   -1.854293
 H      4.582411   -2.591655   -2.539538
 H      6.344554    0.967725   -0.920239
 H      6.298967   -0.799024   -2.656332
 C      2.426746    0.418865    2.030791
 C      1.105181    0.486068    2.666041
 H      2.539130    1.299741    1.404216
 H      3.202915    0.469753    2.802878
 C      0.011684    0.548779    3.155510
 H     -0.942978    0.596048    3.618646
 Cl    -0.031771   -3.574475   -0.955985
 Cl     0.667975   -3.231644    2.002001
 O     -1.172755   -1.478010    1.172568
 O     -0.344536   -1.026160   -0.953579
 C     -2.508690   -0.046560   -0.062879
 C     -1.348161    0.830599   -0.052071
 C      0.856515    0.890642   -0.900766
 C     -3.154954   -2.266857    0.445314
 C     -4.414687   -2.072520   -0.168222
 C     -3.694454    0.208001   -0.648328
 C     -4.695159   -0.809028   -0.708206
 C     -1.269656    2.096475    0.393444
 C     -0.054992    2.827779    0.224421
 C      1.009341    2.229226   -0.461657
 H     -3.869347    1.172992   -1.104887
 H     -2.123383    2.554675    0.874703
 N     -2.282894   -1.283735    0.489029
 N     -0.256251    0.246659   -0.648618
 F     -2.816734   -3.355570    0.980490
 C     -5.354603   -3.119181   -0.223602
 C     -5.948077   -0.605299   -1.315531
 C     -6.858291   -1.626747   -1.366073
 H     -7.825154   -1.462893   -1.836134
 C     -6.562347   -2.895083   -0.817136
 H     -7.300971   -3.690038   -0.870409
 H     -6.180841    0.364367   -1.740916
 F      1.753166    0.296988   -1.546758
 C      0.113857    4.139877    0.704768
 C      2.218605    2.913203   -0.679599
 C      1.296662    4.797381    0.500157
 H      1.421849    5.809759    0.876792
 C      2.359231    4.182588   -0.199613
 H     -0.699806    4.618582    1.237826
 H      3.287449    4.725640   -0.354104
 H     -5.101408   -4.081225    0.204300
 H      3.016829    2.415617   -1.214462
