57

 Si     0.787578   -0.853212    2.255164
 O      0.837971   -2.042722    1.151868
 C      0.976580   -2.194156   -0.213294
 C      2.030012   -1.272675   -0.738822
 H      0.031677   -1.944020   -0.697947
 C      3.240133   -1.192054   -0.074887
 C      1.774684   -0.422723   -1.799837
 C      4.188281   -0.262392   -0.455639
 H      3.434399   -1.852825    0.757752
 C      2.719881    0.512367   -2.187064
 H      0.829939   -0.483050   -2.326031
 C      3.928149    0.596119   -1.513907
 H      5.132555   -0.206569    0.076935
 H      2.514130    1.175620   -3.022560
 H      4.671698    1.326909   -1.817469
 C      1.285658   -3.649235   -0.475282
 C      0.246500   -4.539745    0.066271
 H      2.234724   -3.898247    0.001697
 H      1.388089   -3.832120   -1.552506
 C     -0.584914   -5.278154    0.519066
 H     -1.296060   -5.960568    0.917477
 Cl     2.175044    0.367792    3.062269
 Cl     0.672262   -2.127961    3.833612
 O      0.788352    0.165112    0.778237
 O     -0.821019   -0.302802    2.382249
 C     -0.923570    1.655086    0.652080
 C     -1.679825    0.444820    0.371632
 C     -1.957164   -1.790978    1.100020
 C      1.328837    2.353404    0.728573
 C      0.928867    3.713237    0.768110
 C     -1.374787    2.922832    0.677335
 C     -0.443029    4.001348    0.776309
 C     -2.416014    0.223355   -0.732472
 C     -2.976558   -1.068093   -0.969503
 C     -2.734209   -2.092544   -0.043738
 H     -2.436429    3.118173    0.603509
 H     -2.550455    1.016992   -1.454969
 N      0.425975    1.402141    0.757185
 N     -1.484129   -0.574784    1.268746
 F      2.537340    2.007044    0.650341
 C      1.890892    4.738020    0.817338
 C     -0.844150    5.349010    0.840067
 C      0.096755    6.341769    0.895419
 H     -0.219004    7.380904    0.947537
 C      1.476285    6.036898    0.882385
 H      2.205480    6.841102    0.925416
 H     -1.901601    5.588473    0.845890
 F     -1.698919   -2.634484    1.984264
 C     -3.740714   -1.365875   -2.111430
 C     -3.245030   -3.388284   -0.235328
 C     -4.231753   -2.631720   -2.294760
 H     -4.821898   -2.855964   -3.180330
 C     -3.984592   -3.652791   -1.351288
 H     -3.934820   -0.586665   -2.839757
 H     -4.385527   -4.648630   -1.517477
 H      2.941631    4.477566    0.809533
 H     -3.034189   -4.150050    0.502016
