57

 Si     0.208877   -1.246302    1.543118
 O      1.692525   -1.857928    1.228998
 C      3.012236   -1.517050    1.400962
 C      3.446419   -0.575627    0.314175
 H      3.145572   -1.021132    2.366932
 C      2.892948   -0.698048   -0.946488
 C      4.351635    0.442782    0.565524
 C      3.185838    0.222636   -1.935171
 H      2.203544   -1.503973   -1.136933
 C      4.663065    1.361488   -0.424806
 H      4.799154    0.534729    1.548970
 C      4.068654    1.262485   -1.673452
 H      2.731807    0.124747   -2.916809
 H      5.367295    2.161870   -0.216321
 H      4.303815    1.986954   -2.448232
 C      3.820371   -2.795287    1.391920
 C      3.435909   -3.676383    2.506604
 H      4.892625   -2.576879    1.467233
 H      3.645008   -3.314526    0.448107
 C      3.111871   -4.377728    3.425768
 H      2.844938   -5.009317    4.238798
 Cl     0.586970   -0.309130    3.289055
 Cl    -0.650684   -3.069089    1.390759
 O      0.345546   -0.382326    0.073426
 O     -1.375646   -0.412214    1.615461
 C     -1.340207    1.077585   -0.527184
 C     -2.211246   -0.087922   -0.529970
 C     -3.202788   -1.600389    0.989491
 C      0.764628    1.818576    0.241787
 C      0.433988    3.163068   -0.042384
 C     -1.720474    2.337459   -0.821833
 C     -0.821708    3.425084   -0.608168
 C     -3.028495   -0.478133   -1.525346
 C     -3.978869   -1.520095   -1.300143
 C     -4.091870   -2.061893   -0.013092
 H     -2.724458    2.523594   -1.178419
 H     -2.975730    0.015799   -2.486295
 N     -0.078096    0.851371   -0.041964
 N     -2.268250   -0.722114    0.694405
 F      1.856876    1.480661    0.756307
 C      1.350366    4.196810    0.225621
 C     -1.155712    4.760238   -0.902884
 C     -0.259883    5.762102   -0.642348
 H     -0.522400    6.791619   -0.874213
 C      1.004001    5.481863   -0.074352
 H      1.697256    6.294854    0.122589
 H     -2.124544    4.983330   -1.335312
 F     -3.283322   -1.995317    2.183011
 C     -4.838219   -1.997082   -2.306071
 C     -5.038777   -3.059587    0.279489
 C     -5.754347   -2.973254   -2.016884
 H     -6.414884   -3.339854   -2.799009
 C     -5.858285   -3.510307   -0.714893
 H     -4.766156   -1.585395   -3.306413
 H     -6.593276   -4.283172   -0.508220
 H      2.311389    3.951700    0.659828
 H     -5.096804   -3.455950    1.285270
