57

 Si    -0.474130   -2.304649   -0.396354
 O      1.088516   -1.985030   -0.598291
 C      2.389035   -1.999007   -0.144435
 C      2.556724   -0.879339    0.844595
 H      3.014940   -1.792155   -1.018255
 C      1.539129   -0.597195    1.737476
 C      3.707982   -0.105096    0.859944
 C      1.646667    0.465857    2.616325
 H      0.660306   -1.215473    1.746121
 C      3.828923    0.952824    1.746352
 H      4.516263   -0.328371    0.172867
 C      2.793066    1.247957    2.620914
 H      0.836160    0.675765    3.307703
 H      4.735187    1.550724    1.752072
 H      2.884276    2.080082    3.313088
 C      2.814734   -3.338191    0.405716
 C      2.643526   -4.388862   -0.609190
 H      2.230104   -3.588052    1.289021
 H      3.871554   -3.286141    0.694990
 C      2.491862   -5.222664   -1.459202
 H      2.366037   -5.977332   -2.198614
 Cl    -1.654249   -3.334442   -1.661293
 Cl    -0.340632   -3.697774    1.092643
 O     -1.240063   -1.249063    0.710164
 O     -0.725268   -0.933866   -1.521561
 C     -2.086299    0.716887   -0.148206
 C     -0.687765    1.049608   -0.365395
 C      1.141481    0.345017   -1.677190
 C     -3.477380   -1.098126    0.464148
 C     -4.637523   -0.351804    0.150932
 C     -3.149602    1.485229   -0.452504
 C     -4.470993    0.965216   -0.301641
 C     -0.026963    2.136905    0.069307
 C      1.312136    2.369038   -0.363795
 C      1.890398    1.480477   -1.277905
 H     -2.996585    2.482930   -0.841360
 H     -0.519422    2.838131    0.729706
 N     -2.287923   -0.557713    0.316228
 N     -0.057796    0.144430   -1.189048
 F     -3.520559   -2.277391    0.901965
 C     -5.916720   -0.921259    0.296968
 C     -5.620722    1.714884   -0.612148
 C     -6.862076    1.155817   -0.468076
 H     -7.746581    1.740870   -0.708833
 C     -7.014944   -0.172689   -0.010578
 H     -8.010603   -0.594477    0.094675
 H     -5.511036    2.734031   -0.965236
 F      1.582483   -0.478606   -2.517476
 C      2.064334    3.479979    0.058205
 C      3.185344    1.691993   -1.781772
 C      3.327635    3.675795   -0.428406
 H      3.904251    4.536603   -0.098817
 C      3.893839    2.778498   -1.359924
 H      1.630715    4.175160    0.767757
 H      4.896247    2.957150   -1.738695
 H     -6.004760   -1.941854    0.648205
 H      3.596743    0.988762   -2.493890
