57

 Si     0.662304   -1.438320   -0.014238
 O      1.587711   -0.116472   -0.013996
 C      2.820255    0.342606    0.419053
 C      3.891223   -0.602274   -0.036988
 H      2.956831    1.303336   -0.094555
 C      3.748510   -1.154239   -1.303455
 C      4.991437   -0.942979    0.730715
 C      4.683182   -2.044896   -1.795081
 H      2.893831   -0.884533   -1.903785
 C      5.937392   -1.833052    0.239857
 H      5.121671   -0.524066    1.719810
 C      5.784362   -2.389011   -1.019802
 H      4.553402   -2.472110   -2.784907
 H      6.795885   -2.094304    0.852027
 H      6.522111   -3.089577   -1.400383
 C      2.766854    0.606387    1.903010
 C      1.592115    1.419896    2.255507
 H      3.668557    1.135426    2.231374
 H      2.701158   -0.335885    2.444606
 C      0.632172    2.071086    2.565553
 H     -0.192022    2.656202    2.887952
 Cl     0.487494   -2.946474   -1.345637
 Cl     1.625069   -2.493573    1.442374
 O     -0.663989   -1.143407    1.012487
 O     -0.308524   -0.527546   -1.205419
 C     -2.518918   -0.211683   -0.010309
 C     -1.677295    0.968187   -0.135181
 C      0.317890    1.651306   -1.197081
 C     -2.424696   -2.495267    0.609528
 C     -3.753817   -2.699136    0.170299
 C     -3.790651   -0.336305   -0.434568
 C     -4.451868   -1.599127   -0.348437
 C     -1.933719    2.213232    0.303633
 C     -1.007771    3.263154    0.024415
 C      0.127554    2.981133   -0.746194
 H     -4.295591    0.515720   -0.869513
 H     -2.834607    2.410921    0.869235
 N     -1.874621   -1.304110    0.516953
 N     -0.530999    0.715877   -0.849790
 F     -1.722974   -3.412776    1.109157
 C     -4.349594   -3.971612    0.257299
 C     -5.774892   -1.793816   -0.786149
 C     -6.349287   -3.033568   -0.698786
 H     -7.372253   -3.177381   -1.038583
 C     -5.633741   -4.133477   -0.173902
 H     -6.110931   -5.107753   -0.115779
 H     -6.329143   -0.955061   -1.191904
 F      1.265189    1.336596   -1.963287
 C     -1.190011    4.578587    0.490665
 C      1.070456    3.978993   -1.051361
 C     -0.265139    5.543704    0.197399
 H     -0.409524    6.557155    0.564109
 C      0.876139    5.244498   -0.579600
 H     -2.066286    4.815118    1.083655
 H      1.596091    6.027036   -0.802291
 H     -3.777882   -4.797130    0.662731
 H      1.933902    3.724763   -1.652440
