57

 Si    -0.658446    2.107470    1.524402
 O      0.674849    2.402779    0.658584
 C      0.896209    2.552564   -0.702617
 C      1.743376    1.404009   -1.158504
 H     -0.050344    2.512615   -1.235826
 C      3.091872    1.346725   -0.844173
 C      1.170824    0.367160   -1.878677
 C      3.870604    0.286488   -1.277663
 H      3.541411    2.145394   -0.269614
 C      1.941392   -0.702727   -2.305559
 H      0.117290    0.405894   -2.116288
 C      3.296829   -0.739378   -2.014787
 H      4.930826    0.268342   -1.047125
 H      1.485227   -1.502283   -2.881972
 H      3.907391   -1.564478   -2.367358
 C      1.511436    3.913298   -0.926114
 C      0.554897    4.968784   -0.554708
 H      1.797303    4.042325   -1.977131
 H      2.406280    4.014695   -0.311691
 C     -0.248372    5.803913   -0.241160
 H     -0.949181    6.555577    0.034261
 Cl    -0.057558    3.102490    3.195623
 Cl    -2.502725    2.907193    1.412404
 O     -1.051580    1.049609    0.072632
 O     -0.507241    0.583173    2.269546
 C     -1.692145   -1.073906    0.649488
 C     -0.269529   -1.246476    0.890890
 C      1.597903   -0.120297    1.805502
 C     -3.174726    0.420709   -0.409461
 C     -4.238481   -0.508192   -0.285583
 C     -2.653268   -2.006530    0.790788
 C     -3.982973   -1.728526    0.353338
 C      0.508107   -2.226658    0.395856
 C      1.914891   -2.206659    0.632537
 C      2.470245   -1.125510    1.328644
 H     -2.406706   -2.967389    1.222409
 H      0.066494   -3.013456   -0.200310
 N     -1.999077    0.161697    0.117162
 N      0.302061   -0.236648    1.619897
 F     -3.312406    1.508728   -1.037306
 C     -5.519443   -0.195655   -0.776401
 C     -5.041784   -2.644073    0.501465
 C     -6.287606   -2.331021    0.028857
 H     -7.103212   -3.040084    0.148286
 C     -6.530938   -1.097955   -0.617061
 H     -7.527427   -0.871296   -0.985804
 H     -4.858567   -3.592989    0.992908
 F      1.998468    0.874190    2.452297
 C      2.774519   -3.224430    0.183861
 C      3.850227   -1.051754    1.587587
 C      4.116051   -3.150538    0.444013
 H      4.774701   -3.945283    0.101669
 C      4.661396   -2.058029    1.152781
 H      2.362407   -4.065507   -0.361744
 H      5.729168   -2.022845    1.349574
 H     -5.681581    0.756654   -1.264932
 H      4.240662   -0.201904    2.132306
