57

 Si     0.635788   -2.203804    0.970211
 O     -0.902161   -1.744598    1.152204
 C     -2.128092   -2.192825    0.685267
 C     -2.532447   -1.245135   -0.407814
 H     -2.001543   -3.187124    0.252182
 C     -3.699060   -0.500740   -0.395649
 C     -1.659059   -1.115169   -1.478616
 C     -3.995281    0.356518   -1.445873
 H     -4.397869   -0.593909    0.424661
 C     -1.941729   -0.255000   -2.522126
 H     -0.757833   -1.705259   -1.492298
 C     -3.117641    0.484443   -2.509598
 H     -4.921096    0.923083   -1.430617
 H     -1.251528   -0.172839   -3.356344
 H     -3.351633    1.153228   -3.332718
 C     -3.074535   -2.302285    1.851113
 C     -2.512490   -3.188323    2.880918
 H     -4.039961   -2.703593    1.521189
 H     -3.249358   -1.321621    2.290738
 C     -2.025479   -3.910583    3.706447
 H     -1.611169   -4.558513    4.441955
 Cl     1.911946   -2.835347    2.392872
 Cl     0.319103   -4.010549    0.061411
 O      1.233672   -1.572251   -0.498105
 O      1.025115   -0.566331    1.579450
 C      2.029329    0.563826   -0.441010
 C      0.665168    0.926352   -0.091015
 C     -0.827559    0.735423    1.737333
 C      3.477311   -1.299704   -0.704317
 C      4.587248   -0.427661   -0.840031
 C      3.045700    1.436400   -0.581192
 C      4.366248    0.956564   -0.793043
 C     -0.119792    1.821034   -0.716351
 C     -1.359553    2.190166   -0.131420
 C     -1.707748    1.659729    1.117760
 H      2.855154    2.497766   -0.499065
 C      5.459332    1.834977   -0.931242
 H      0.203180    2.264588   -1.648324
 C     -2.222412    3.112790   -0.753478
 C     -2.915485    2.049090    1.731701
 Cl    -1.055614    0.167357    3.279986
 N      2.281548   -0.778796   -0.519303
 N      0.250357    0.366471    1.087986
 Cl     3.601868   -2.954745   -0.785858
 C      5.895868   -0.923964   -1.025231
 C      6.719116    1.337421   -1.109903
 C      6.939649   -0.057560   -1.156610
 H      6.056500   -1.993353   -1.059055
 H      5.284578    2.904078   -0.892304
 H      7.560817    2.017332   -1.216590
 H      7.947047   -0.439335   -1.297928
 C     -3.389325    3.477428   -0.146570
 C     -3.740658    2.937227    1.109363
 H     -3.173526    1.637468    2.697776
 H     -1.945159    3.524487   -1.716540
 H     -4.053320    4.189564   -0.629876
 H     -4.671527    3.236104    1.583492
