57

 Si     0.760576   -2.101445    1.219145
 O     -0.315681   -2.576720    0.120200
 C     -1.672769   -2.777634    0.042932
 C     -2.309857   -1.566455   -0.587582
 H     -2.086123   -2.938597    1.041985
 C     -1.543875   -0.743229   -1.392745
 C     -3.660093   -1.293207   -0.421726
 C     -2.114022    0.345194   -2.030548
 H     -0.497641   -0.965083   -1.509478
 C     -4.237238   -0.208675   -1.062311
 H     -4.265784   -1.934939    0.209099
 C     -3.465655    0.612482   -1.871379
 H     -1.503058    0.978527   -2.665779
 H     -5.296351   -0.007380   -0.931357
 H     -3.919140    1.457567   -2.379397
 C     -1.918699   -4.009984   -0.798694
 C     -1.320942   -5.207077   -0.187838
 H     -2.994027   -4.176962   -0.932037
 H     -1.475936   -3.852676   -1.784174
 C     -0.827547   -6.172733    0.326944
 H     -0.400397   -7.037126    0.776706
 Cl     0.024425   -3.136515    2.827810
 Cl     2.663433   -2.748002    1.406956
 O      1.229694   -1.057385   -0.203922
 O      0.538338   -0.588563    1.985031
 C      1.934108    0.991714    0.438972
 C      0.511318    1.241594    0.616942
 C     -1.458306    0.460913    1.679854
 C      3.394049   -0.506566   -0.663393
 C      4.479435    0.385340   -0.447475
 C      2.919588    1.881777    0.662368
 C      4.247515    1.572761    0.261313
 C     -0.142073    2.284602    0.070493
 C     -1.530635    2.456311    0.305603
 C     -2.193869    1.536637    1.128072
 H      2.692079    2.830667    1.129137
 C      5.321613    2.449698    0.513403
 H      0.397861    2.987388   -0.548873
 C     -2.249820    3.531491   -0.249830
 C     -3.567261    1.704214    1.401122
 Cl    -2.123039   -0.622153    2.742907
 N      2.223105   -0.219821   -0.136301
 N     -0.178194    0.339369    1.381563
 Cl     3.528847   -1.880925   -1.601097
 C      5.780318    0.086050   -0.903375
 C      6.576924    2.139273    0.073089
 C      6.807633    0.944559   -0.644459
 H      5.951668   -0.831921   -1.449156
 H      5.135452    3.367088    1.060179
 H      7.405059    2.814886    0.271832
 H      7.810299    0.709303   -0.990733
 C     -3.580252    3.676176    0.022573
 C     -4.245130    2.753943    0.859711
 H     -4.070625    0.991962    2.039650
 H     -1.732560    4.238300   -0.888200
 H     -4.133753    4.509013   -0.404279
 H     -5.302987    2.882975    1.070543
