57

 Si     0.223092   -1.741554   -0.226907
 O      1.401746   -0.651104   -0.078637
 C      2.597130   -0.345576    0.533321
 C      3.718866   -1.202330    0.020940
 H      2.803277    0.694651    0.248039
 C      5.022864   -0.993073    0.454840
 C      3.471456   -2.184237   -0.921016
 C      6.059954   -1.766162   -0.040874
 H      5.234641   -0.217773    1.181963
 C      4.503765   -2.961319   -1.420732
 H      2.467789   -2.351874   -1.269254
 C      5.802568   -2.756470   -0.979852
 H      7.074218   -1.593831    0.308109
 H      4.287468   -3.730308   -2.156350
 H      6.614226   -3.365430   -1.367431
 C      2.450561   -0.391519    2.036276
 C      1.302650    0.407590    2.492544
 H      3.357897   -0.003602    2.511362
 H      2.304757   -1.418604    2.364558
 C      0.365910    1.048139    2.884228
 H     -0.443523    1.606489    3.283220
 Cl    -0.130326   -3.040096   -1.730154
 Cl     0.883568   -3.114538    1.132196
 O     -1.036630   -1.265477    0.810986
 O     -0.514081   -0.550207   -1.340318
 C     -2.517536    0.248427   -0.040996
 C     -1.369468    1.139658   -0.095106
 C      0.641874    1.403195   -1.318567
 C     -3.125216   -2.016485    0.333235
 C     -4.453364   -1.735179   -0.077191
 C     -3.766973    0.572961   -0.423629
 C     -4.780964   -0.422535   -0.446721
 C     -1.249428    2.348033    0.480828
 C     -0.094217    3.132693    0.218135
 C      0.846226    2.670188   -0.712874
 H     -3.983776    1.583614   -0.741991
 C     -6.097233   -0.128394   -0.854082
 H     -2.026071    2.712839    1.139216
 C      0.115204    4.373792    0.851653
 C      1.984290    3.450142   -1.006456
 Cl     1.610801    0.815194   -2.533827
 N     -2.242591   -1.038686    0.336608
 N     -0.383549    0.684934   -0.928824
 Cl    -2.622951   -3.520876    0.828671
 C     -5.441274   -2.742736   -0.115924
 C     -7.041012   -1.115918   -0.885663
 C     -6.708956   -2.437691   -0.513027
 H     -5.178858   -3.752751    0.169636
 H     -6.346047    0.886959   -1.140766
 H     -8.056069   -0.885993   -1.200192
 H     -7.468988   -3.213559   -0.543892
 C      1.229074    5.110634    0.565387
 C      2.173700    4.643521   -0.375254
 H      2.701107    3.087503   -1.730766
 H     -0.616108    4.729208    1.568392
 H      1.390651    6.064923    1.060496
 H      3.053879    5.240599   -0.597569
