57

 Si    -0.200607   -1.637690    1.618358
 O      1.081257   -2.622630    1.323588
 C      1.513831   -3.255403    0.168295
 C      1.664790   -2.193583   -0.885526
 H      0.752999   -3.968128   -0.161055
 C      2.743780   -1.329968   -0.876120
 C      0.605784   -1.936222   -1.739624
 C      2.741290   -0.188825   -1.655389
 H      3.586629   -1.534201   -0.233965
 C      0.597517   -0.801636   -2.529887
 H     -0.232977   -2.618704   -1.768879
 C      1.657588    0.088433   -2.474475
 H      3.593966    0.483015   -1.631468
 H     -0.238326   -0.616807   -3.197285
 H      1.657240    0.980961   -3.093829
 C      2.774129   -4.011685    0.498624
 C      2.508358   -5.067690    1.488572
 H      3.198969   -4.468474   -0.404059
 H      3.512391   -3.323504    0.910087
 C      2.274502   -5.928597    2.292000
 H      2.085394   -6.701116    2.998597
 Cl    -0.023168   -1.664778    3.615953
 Cl    -1.611935   -2.774470    0.729197
 O      0.586473   -0.523455    0.593999
 O     -1.284964   -0.232325    1.845591
 C     -0.222056    1.560020    0.269548
 C     -1.444758    0.898110   -0.154529
 C     -3.282057   -0.280989    0.765774
 C      1.801436    1.173068    1.438963
 C      2.053557    2.566598    1.487266
 C     -0.032187    2.895126    0.281388
 C      1.139109    3.435987    0.873803
 C     -2.100171    1.126908   -1.306743
 C     -3.404284    0.594677   -1.495177
 C     -4.021204   -0.072492   -0.427843
 H     -0.792444    3.549171   -0.123338
 C      1.382219    4.824808    0.902992
 H     -1.637545    1.732865   -2.073310
 C     -4.108784    0.767770   -2.702546
 C     -5.338242   -0.556622   -0.572121
 Cl    -3.942598   -0.979183    2.126510
 N      0.729272    0.744518    0.808440
 N     -2.025582    0.113490    0.814887
 Cl     2.781819    0.036180    2.148158
 C      3.200353    3.087401    2.124974
 C      2.499336    5.311257    1.519515
 C      3.418059    4.432470    2.138373
 H      3.896702    2.407314    2.597237
 H      0.671576    5.494167    0.431738
 H      2.685759    6.382195    1.538873
 H      4.301334    4.834183    2.627359
 C     -5.380390    0.283509   -2.828567
 C     -6.002123   -0.384406   -1.750559
 H     -5.807065   -1.070267    0.256425
 H     -3.628305    1.287557   -3.523542
 H     -5.921274    0.414958   -3.762430
 H     -7.014370   -0.762864   -1.862817
