57

 Si     0.465375   -2.339483    0.522439
 O     -1.093938   -1.943695    0.518125
 C     -2.338082   -1.941854   -0.073714
 C     -2.366439   -0.877550   -1.132702
 H     -3.043315   -1.664976    0.716557
 C     -1.254544   -0.671149   -1.927846
 C     -3.490193   -0.084036   -1.314732
 C     -1.245636    0.333996   -2.879055
 H     -0.394273   -1.303008   -1.803375
 C     -3.493914    0.914558   -2.274688
 H     -4.371263   -0.249660   -0.705703
 C     -2.366895    1.132481   -3.054422
 H     -0.363541    0.484115   -3.494295
 H     -4.380458    1.525657   -2.414206
 H     -2.367068    1.917253   -3.805567
 C     -2.750987   -3.298591   -0.589327
 C     -2.711811   -4.293011    0.493804
 H     -3.773213   -3.235741   -0.982245
 H     -2.093077   -3.614536   -1.396468
 C     -2.668978   -5.078835    1.400160
 H     -2.638181   -5.793843    2.187381
 Cl     1.401517   -3.411479    1.942529
 Cl     0.442849   -3.758243   -0.951065
 O      1.356601   -1.324447   -0.522339
 O      0.657782   -0.957821    1.650890
 C      2.014031    0.692256    0.302626
 C      0.588508    0.950921    0.423735
 C     -1.236146    0.288852    1.778318
 C      3.574846   -1.043288   -0.131012
 C      4.642326   -0.183207    0.232405
 C      2.990134    1.555793    0.641916
 C      4.347324    1.135644    0.608308
 C     -0.097262    1.977219   -0.107781
 C     -1.451402    2.178672    0.268566
 C     -2.015458    1.349930    1.247764
 H      2.732898    2.554492    0.967677
 C      5.398977    2.002500    0.966510
 H      0.389551    2.652818   -0.797954
 C     -2.221352    3.221201   -0.280605
 C     -3.342140    1.569110    1.669838
 Cl    -1.754715   -0.673990    3.028871
 N      2.344180   -0.577013   -0.083940
 N     -0.034694    0.092135    1.291432
 Cl     3.794448   -2.611144   -0.636204
 C      5.982791   -0.625972    0.217390
 C      6.690474    1.557489    0.945695
 C      6.985312    0.228167    0.567790
 H      6.199956   -1.645451   -0.072542
 H      5.166678    3.020344    1.258189
 H      7.500050    2.228456    1.222280
 H      8.016950   -0.112699    0.557311
 C     -3.507288    3.415831    0.134846
 C     -4.073587    2.579880    1.120812
 H     -3.768289    0.927227    2.428788
 H     -1.778337    3.860763   -1.034644
 H     -4.099953    4.220888   -0.292013
 H     -5.097130    2.746075    1.445493
