63

 Si     0.606709   -1.938316    1.458544
 O     -0.662895   -2.417192    0.569624
 C     -0.896463   -2.501035   -0.796576
 C     -1.824158   -1.389793   -1.186632
 H      0.036469   -2.368819   -1.337772
 C     -3.159892   -1.417712   -0.814949
 C     -1.342788   -0.303466   -1.899893
 C     -4.013188   -0.389689   -1.178765
 H     -3.540089   -2.258340   -0.249778
 C     -2.190743    0.730984   -2.264940
 H     -0.299587   -0.271803   -2.181325
 C     -3.530438    0.684660   -1.913298
 H     -5.060691   -0.433762   -0.897078
 H     -1.805550    1.568849   -2.838162
 H     -4.200235    1.484056   -2.212342
 C     -1.419575   -3.887412   -1.091154
 C     -0.379562   -4.889972   -0.805125
 H     -1.721560   -3.973414   -2.142130
 H     -2.290476   -4.089388   -0.466971
 C      0.492819   -5.678223   -0.562122
 H      1.252023   -6.392923   -0.350235
 Cl     0.035920   -2.990242    3.125786
 Cl     2.516354   -2.609536    1.476717
 O      0.965306   -0.909743    0.020621
 O      0.313071   -0.446822    2.221921
 C      1.625860    1.166750    0.640903
 C      0.199502    1.372563    0.846818
 C     -1.761637    0.404868    1.789655
 C      3.105528   -0.289208   -0.510749
 C      4.158036    0.654402   -0.329472
 C      2.586265    2.090106    0.838487
 C      3.911410    1.833432    0.389937
 C     -0.499241    2.387876    0.303429
 C     -1.903185    2.462921    0.495564
 C     -2.542280    1.455146    1.236217
 H      2.337732    3.027566    1.317503
 C      4.961739    2.749704    0.604117
 H      0.011134    3.130743   -0.293528
 C     -2.662625    3.518370   -0.048645
 C     -3.941904    1.524847    1.425885
 C     -2.288181   -0.703697    2.614647
 N      1.939797   -0.035194    0.046665
 N     -0.458632    0.421603    1.578301
 C      3.252361   -1.514552   -1.338681
 C      5.453090    0.407486   -0.836498
 C      6.209826    2.487884    0.114498
 C      6.457861    1.304027   -0.616405
 H      5.642574   -0.501126   -1.392315
 H      4.763274    3.658495    1.161025
 H      7.019213    3.193620    0.283195
 H      7.454591    1.109170   -1.002593
 C     -4.011830    3.565308    0.149701
 C     -4.658600    2.556050    0.896947
 H     -4.446761    0.757011    1.993567
 H     -2.158213    4.288771   -0.620328
 H     -4.595150    4.382909   -0.266504
 H     -5.733149    2.604230    1.049770
 H      2.311650   -2.042119   -1.377313
 H      3.548675   -1.216599   -2.346256
 H      4.020495   -2.166643   -0.929985
 H     -2.104855   -1.632604    2.086492
 H     -1.739939   -0.740509    3.551440
 H     -3.345210   -0.584552    2.810541
