63

 Si     0.769272   -0.598389    2.066608
 O      0.946119   -1.857789    1.049403
 C      1.152347   -2.043266   -0.302881
 C      2.314663   -1.227891   -0.780218
 H      0.259118   -1.747223   -0.856645
 C      3.451553   -1.161905    0.007499
 C      2.276230   -0.546204   -1.984394
 C      4.547989   -0.424226   -0.401504
 H      3.476141   -1.694649    0.947478
 C      3.372482    0.194020   -2.402413
 H      1.390363   -0.597017   -2.606791
 C      4.511505    0.255117   -1.613100
 H      5.434243   -0.383214    0.224970
 H      3.337915    0.720940   -3.352085
 H      5.372921    0.829467   -1.942100
 C      1.417937   -3.516361   -0.530944
 C      0.297836   -4.389789   -0.142520
 H      1.640301   -3.698978   -1.589683
 H      2.292821   -3.803256    0.054262
 C     -0.586119   -5.141775    0.167220
 H     -1.347289   -5.833736    0.434488
 Cl     2.002239    0.786254    2.888484
 Cl     0.812846   -1.817628    3.716830
 O      0.733440    0.353225    0.554544
 O     -0.884604   -0.219701    2.201744
 C     -1.092856    1.668675    0.450499
 C     -1.745946    0.396814    0.179436
 C     -2.105022   -1.789410    1.051110
 C      1.078081    2.622490    0.476890
 C      0.490081    3.920579    0.544416
 C     -1.698226    2.869159    0.503035
 C     -0.906006    4.047361    0.597739
 C     -2.442074    0.129092   -0.940357
 C     -2.997761   -1.164727   -1.133002
 C     -2.837158   -2.125865   -0.121927
 H     -2.777184    2.929912    0.454419
 C     -1.484801    5.329195    0.697414
 H     -2.559340    0.895059   -1.694547
 C     -3.701338   -1.498894   -2.307662
 C     -3.394290   -3.412491   -0.298667
 C     -1.902642   -2.706759    2.191763
 N      0.278086    1.578794    0.523068
 N     -1.575672   -0.583297    1.122923
 C      2.534579    2.404708    0.306561
 C      1.294822    5.080361    0.588887
 C     -0.688892    6.438448    0.746795
 C      0.717393    6.312555    0.691587
 H      2.371504    4.981974    0.550831
 H     -2.564598    5.418594    0.735847
 H     -1.136522    7.425777    0.826976
 H      1.339208    7.202639    0.732306
 C     -4.223155   -2.752082   -2.460698
 C     -4.068603   -3.719925   -1.443360
 H     -3.273337   -4.155636    0.475280
 H     -3.819745   -0.749605   -3.082022
 H     -4.764060   -3.008802   -3.368201
 H     -4.490493   -4.712275   -1.575651
 H      2.724010    1.357808    0.146429
 H      2.869943    2.975889   -0.558910
 H      3.080201    2.749192    1.181657
 H     -0.982407   -3.261095    2.024718
 H     -1.802378   -2.133512    3.103057
 H     -2.735672   -3.396725    2.273110
