63

 Si     1.339376   -0.248657    1.818646
 O      1.043580   -1.646715    1.056944
 C      1.814414   -2.525589    0.304355
 C      1.562908   -2.195973   -1.141224
 H      2.868497   -2.343435    0.524344
 C      1.035161   -3.089330   -2.058227
 C      1.868835   -0.907395   -1.556445
 C      0.820087   -2.702313   -3.373215
 H      0.801630   -4.103319   -1.763645
 C      1.645021   -0.510652   -2.860799
 H      2.293707   -0.216491   -0.847970
 C      1.119819   -1.411974   -3.777704
 H      0.418109   -3.417958   -4.083514
 H      1.896182    0.500192   -3.167544
 H      0.952341   -1.109866   -4.807396
 C      1.491042   -3.939842    0.717953
 C      1.584532   -4.085368    2.177757
 H      2.188246   -4.638008    0.239128
 H      0.485523   -4.218353    0.403647
 C      1.650760   -4.169520    3.373183
 H      1.717412   -4.265278    4.431215
 Cl     3.395750   -0.331600    1.821555
 Cl     1.110799    0.133530    3.788742
 O      1.422746    1.056528    0.730855
 O     -0.413547    0.019929    1.718481
 C     -0.568024    2.018625    0.165045
 C     -0.899069    0.713958   -0.391860
 C     -1.440388   -1.480281    0.347243
 C      1.022457    3.155547    1.527471
 C      0.177840    4.300168    1.546894
 C     -1.387893    3.087909    0.135902
 C     -1.028902    4.275414    0.830303
 C     -1.297677    0.455536   -1.650786
 C     -1.762210   -0.845514   -1.983875
 C     -1.857656   -1.811793   -0.971080
 H     -2.331928    3.023571   -0.387748
 C     -1.865036    5.411206    0.840236
 H     -1.275471    1.239617   -2.395289
 C     -2.165868   -1.174167   -3.293495
 C     -2.344205   -3.100249   -1.281291
 C     -1.581673   -2.369499    1.522857
 N      0.617197    2.099297    0.851759
 N     -0.926862   -0.288636    0.545190
 C      2.334553    3.093653    2.221624
 C      0.534143    5.460280    2.271769
 C     -1.501641    6.523305    1.545005
 C     -0.288880    6.547762    2.271163
 H      1.461876    5.475883    2.828340
 H     -2.795651    5.385982    0.284737
 H     -2.147942    7.397472    1.551239
 H     -0.014415    7.437886    2.830572
 C     -2.633097   -2.425437   -3.574207
 C     -2.719309   -3.401900   -2.557209
 H     -2.412433   -3.844505   -0.499237
 H     -2.096365   -0.421462   -4.069869
 H     -2.942119   -2.675539   -4.585885
 H     -3.091266   -4.394920   -2.794311
 H      2.863382    2.197596    1.931972
 H      2.922981    3.974622    1.972064
 H      2.165413    3.075413    3.298749
 H     -0.778769   -3.093727    1.542537
 H     -1.518514   -1.770638    2.420012
 H     -2.539509   -2.884979    1.484338
