63

 Si    -1.407366   -0.362816    1.746846
 O     -1.602417    1.097857    1.075230
 C     -2.607922    1.692551    0.320770
 C     -2.196685    1.574294   -1.120880
 H     -3.533258    1.131172    0.465872
 C     -1.986783    2.657807   -1.957155
 C     -2.005941    0.292895   -1.619055
 C     -1.597073    2.464059   -3.274703
 H     -2.140404    3.665984   -1.597304
 C     -1.604154    0.092507   -2.925651
 H     -2.182910   -0.551137   -0.973948
 C     -1.399884    1.182572   -3.761723
 H     -1.450457    3.323283   -3.921609
 H     -1.465800   -0.917873   -3.298443
 H     -1.096854    1.031162   -4.793621
 C     -2.831995    3.097079    0.823558
 C     -3.029663    3.099300    2.280231
 H     -3.714436    3.531810    0.338596
 H     -1.982632    3.736966    0.586048
 C     -3.170699    3.074317    3.471861
 H     -3.310595    3.068976    4.527053
 Cl    -3.356614   -1.012801    1.636826
 Cl    -1.124791   -0.775236    3.703886
 O     -0.978957   -1.535222    0.591085
 O      0.328261    0.015933    1.734888
 C      1.244679   -1.693143    0.102444
 C      1.110555   -0.322718   -0.372805
 C      0.803384    1.868286    0.498269
 C      0.109776   -3.407117    1.307445
 C      1.305098   -4.178230    1.323257
 C      2.392676   -2.398640    0.073616
 C      2.452592   -3.679851    0.686736
 C      1.442391    0.140915   -1.591636
 C      1.425572    1.540805   -1.835487
 C      1.127887    2.410536   -0.775550
 H      3.272118   -1.970058   -0.387269
 C      3.637623   -4.444727    0.694447
 H      1.730713   -0.550483   -2.371650
 C      1.738167    2.075191   -3.101533
 C      1.134188    3.804942   -0.995946
 C      0.572579    2.672449    1.720000
 N      0.138977   -2.233115    0.709450
 N      0.741512    0.561869    0.609693
 C     -1.164672   -3.859546    1.922495
 C      1.355836   -5.435988    1.966664
 C      3.665425   -5.658711    1.319621
 C      2.511753   -6.159613    1.965435
 H      0.472100   -5.816143    2.461842
 H      4.520559   -4.054487    0.201087
 H      4.580177   -6.246182    1.324319
 H      2.549415   -7.125418    2.461807
 C      1.737982    3.426142   -3.295599
 C      1.428781    4.301819   -2.231265
 H      0.900165    4.473027   -0.177965
 H      1.973802    1.398573   -3.914459
 H      1.977795    3.834374   -4.274050
 H      1.431004    5.375365   -2.399031
 H     -1.964222   -3.185208    1.653560
 H     -1.395623   -4.868633    1.585944
 H     -1.052803   -3.866012    3.007132
 H     -0.433169    3.070054    1.722431
 H      0.686501    2.033186    2.583484
 H      1.288741    3.491053    1.764408
