63

 Si     0.419214   -1.557304   -0.132851
 O      1.563726   -0.419460   -0.091862
 C      2.708562    0.017937    0.542100
 C      3.923917   -0.722886    0.058740
 H      2.813529    1.072062    0.250352
 C      5.197118   -0.285821    0.408575
 C      3.791557   -1.829224   -0.761231
 C      6.319554   -0.955415   -0.050135
 H      5.315564    0.585506    1.042892
 C      4.910832   -2.502349   -1.225013
 H      2.810961   -2.175821   -1.038554
 C      6.179072   -2.068643   -0.868931
 H      7.308582   -0.605080    0.231484
 H      4.786554   -3.370189   -1.865945
 H      7.058208   -2.594865   -1.229653
 C      2.559593   -0.018460    2.046521
 C      1.339931    0.673420    2.492337
 H      3.425251    0.468322    2.508902
 H      2.519918   -1.047849    2.396013
 C      0.351976    1.234177    2.880050
 H     -0.505062    1.724782    3.268222
 Cl     0.133554   -2.934800   -1.586875
 Cl     1.214587   -2.853595    1.246375
 O     -0.850687   -1.196689    0.933158
 O     -0.430662   -0.460899   -1.241984
 C     -2.504014    0.128522    0.075460
 C     -1.465245    1.145311   -0.017027
 C      0.498196    1.624160   -1.268354
 C     -2.868072   -2.182856    0.522896
 C     -4.225190   -2.039592    0.120651
 C     -3.786231    0.314723   -0.294642
 C     -4.694973   -0.778327   -0.276968
 C     -1.497673    2.376802    0.523946
 C     -0.458743    3.300195    0.223315
 C      0.527574    2.929775   -0.703512
 H     -4.108130    1.289893   -0.633772
 C     -6.041050   -0.631827   -0.671811
 H     -2.310696    2.656191    1.180308
 C     -0.409810    4.581270    0.811061
 C      1.551800    3.843901   -1.035766
 C      1.426086    1.159978   -2.326249
 N     -2.093560   -1.117148    0.481282
 N     -0.429311    0.795967   -0.847440
 C     -2.286533   -3.467732    0.988857
 C     -5.106856   -3.144630    0.116055
 C     -6.877407   -1.711572   -0.667613
 C     -6.404604   -2.983549   -0.270833
 H     -4.741903   -4.117361    0.418159
 H     -6.397299    0.345091   -0.978338
 H     -7.914637   -1.596626   -0.972318
 H     -7.080681   -3.834122   -0.275451
 C      0.594280    5.447763    0.484915
 C      1.586978    5.075344   -0.449761
 H      2.309488    3.554294   -1.751916
 H     -1.176139    4.864251    1.523700
 H      0.631396    6.433113    0.942603
 H      2.378887    5.775456   -0.701451
 H     -1.287115   -3.307088    1.364847
 H     -2.916475   -3.891817    1.768952
 H     -2.246087   -4.164643    0.151316
 H      2.435749    1.078874   -1.940154
 H      1.103823    0.193357   -2.679975
 H      1.418826    1.877800   -3.147657
