63

 Si     0.617131   -1.970498    1.268684
 O     -0.755706   -2.096084    0.397326
 C     -1.143999   -1.889648   -0.911879
 C     -2.483250   -1.215689   -0.913082
 H     -0.432397   -1.253695   -1.429566
 C     -3.477841   -1.685971   -0.069928
 C     -2.751823   -0.151678   -1.760067
 C     -4.731964   -1.100959   -0.068753
 H     -3.260639   -2.520604    0.582346
 C     -4.010469    0.431911   -1.771898
 H     -1.980281    0.215159   -2.427748
 C     -5.001830   -0.041582   -0.927082
 H     -5.504865   -1.478898    0.594413
 H     -4.217106    1.255826   -2.448044
 H     -5.988971    0.411028   -0.938089
 C     -1.194574   -3.227821   -1.614673
 C      0.117649   -3.893158   -1.594467
 H     -1.518571   -3.107341   -2.655218
 H     -1.914650   -3.871423   -1.106769
 C      1.183208   -4.445123   -1.558527
 H      2.114200   -4.958085   -1.528421
 Cl    -0.171456   -3.124624    2.774777
 Cl     2.478951   -2.763003    1.457682
 O      1.170478   -1.031309   -0.149193
 O      0.540931   -0.487424    2.096067
 C      1.855431    1.030027    0.455541
 C      0.426565    1.257100    0.627879
 C     -1.501830    0.510999    1.810468
 C      3.366759   -0.502262   -0.547013
 C      4.427410    0.427642   -0.339909
 C      2.819524    1.946062    0.665080
 C      4.162619    1.645650    0.304140
 C     -0.265199    2.229157    0.004780
 C     -1.653317    2.387577    0.263589
 C     -2.273283    1.529389    1.186714
 H      2.564795    2.906738    1.091913
 C      5.217233    2.552232    0.537030
 H      0.241903    2.889503   -0.685231
 C     -2.406948    3.398565   -0.364142
 C     -3.644061    1.707212    1.477771
 C     -2.015145   -0.437301    2.821045
 N      2.177428   -0.198609   -0.072414
 N     -0.227058    0.411379    1.485842
 C      3.530842   -1.763696   -1.313152
 C      5.745632    0.130912   -0.751013
 C      6.487216    2.242916    0.139923
 C      6.754415    1.018409   -0.512728
 H      5.948998   -0.808962   -1.246758
 H      5.004696    3.492078    1.033958
 H      7.299405    2.941874    0.322746
 H      7.768802    0.784872   -0.824236
 C     -3.730934    3.551063   -0.066834
 C     -4.354818    2.697392    0.867649
 H     -4.133120    1.053292    2.184038
 H     -1.918764    4.053754   -1.076454
 H     -4.309512    4.335679   -0.547967
 H     -5.408139    2.828594    1.097612
 H      2.571830   -2.247612   -1.425884
 H      3.942097   -1.522368   -2.294597
 H      4.220307   -2.432767   -0.803032
 H     -2.097938   -1.414562    2.358591
 H     -1.299592   -0.511171    3.633193
 H     -2.976409   -0.120064    3.203970
