63

 Si     0.095483   -1.095421    1.998601
 O     -0.914893   -1.896036    1.003407
 C     -1.048210   -2.091301   -0.356455
 C      0.242810   -2.559197   -0.954961
 H     -1.344605   -1.156933   -0.837325
 C      0.995098   -3.497343   -0.268511
 C      0.697006   -2.073737   -2.169197
 C      2.192141   -3.955449   -0.789002
 H      0.637582   -3.871151    0.680384
 C      1.895174   -2.530009   -2.698900
 H      0.111275   -1.340929   -2.712027
 C      2.644614   -3.473072   -2.011017
 H      2.771273   -4.693024   -0.241091
 H      2.241473   -2.150682   -3.656457
 H      3.580494   -3.835274   -2.427089
 C     -2.129896   -3.129279   -0.568925
 C     -3.452649   -2.722502   -0.066052
 H     -2.226939   -3.358605   -1.637428
 H     -1.834769   -4.043765   -0.052207
 C     -4.548712   -2.438347    0.334849
 H     -5.528987   -2.218655    0.681797
 Cl     1.990597   -1.361246    2.670731
 Cl    -0.759986   -1.925859    3.668970
 O      0.746332   -0.435975    0.470772
 O     -0.516811    0.468233    2.273805
 C      0.787347    1.816486    0.498353
 C     -0.646528    1.643335    0.320710
 C     -2.582748    0.649102    1.285873
 C      2.800301    0.577695    0.303562
 C      3.539542    1.794823    0.392087
 C      1.435305    2.992995    0.575531
 C      2.858329    3.008324    0.569204
 C     -1.343372    2.129914   -0.722088
 C     -2.736075    1.865093   -0.825071
 C     -3.360801    1.130164    0.195436
 H      0.872061    3.915323    0.623371
 C      3.591669    4.206306    0.690138
 H     -0.836525    2.707371   -1.482992
 C     -3.496176    2.323908   -1.919471
 C     -4.747463    0.872705    0.110174
 C     -3.138172   -0.105734    2.428575
 N      1.493891    0.636851    0.447572
 N     -1.286471    0.892019    1.272827
 C      3.432069   -0.730271    0.006712
 C      4.950498    1.792585    0.334328
 C      4.956812    4.182290    0.639665
 C      5.644220    2.961281    0.459126
 H      5.475803    0.856315    0.200678
 H      3.057882    5.140401    0.824257
 H      5.520472    5.106725    0.736360
 H      6.730062    2.955234    0.420612
 C     -4.833910    2.054278   -1.985845
 C     -5.467092    1.320987   -0.958091
 H     -5.233474    0.309033    0.892508
 H     -3.004914    2.890874   -2.701980
 H     -5.418007    2.407855   -2.831946
 H     -6.532004    1.115165   -1.020234
 H      2.667025   -1.471822   -0.142601
 H      4.026971   -0.627402   -0.900685
 H      4.088377   -1.033805    0.818642
 H     -3.099121   -1.165515    2.188368
 H     -2.535210    0.073959    3.307802
 H     -4.165469    0.190710    2.611862
