63

 Si     0.423868   -0.891384    1.843140
 O      2.064547   -1.060615    1.876984
 C      2.921772   -1.758846    1.035987
 C      2.672730   -1.248017   -0.356375
 H      2.670349   -2.821792    1.068072
 C      3.175982   -0.029030   -0.772778
 C      1.748421   -1.901417   -1.154859
 C      2.721885    0.561086   -1.937698
 H      3.920511    0.476054   -0.175603
 C      1.292548   -1.322290   -2.324947
 H      1.366440   -2.865745   -0.847741
 C      1.764293   -0.078139   -2.710852
 H      3.124116    1.520398   -2.250393
 H      0.570238   -1.849362   -2.940570
 H      1.411228    0.381321   -3.629797
 C      4.327537   -1.582160    1.548256
 C      4.470049   -2.160886    2.894075
 H      5.046364   -2.064249    0.873699
 H      4.571324   -0.520722    1.597235
 C      4.568260   -2.638262    3.991218
 H      4.677651   -3.062984    4.960509
 Cl     0.293217   -0.022117    3.652682
 Cl    -0.021986   -2.850728    1.639446
 O      0.673147    0.045543    0.445936
 O     -1.263512   -0.373791    1.603988
 C     -1.016410    1.299507   -0.363971
 C     -1.647534    0.014855   -0.627783
 C     -2.705307   -1.779951    0.513328
 C      0.829588    2.288196    0.765937
 C      0.301438    3.578648    0.481909
 C     -1.551597    2.499697   -0.665425
 C     -0.888556    3.688054   -0.255281
 C     -2.124117   -0.383614   -1.821639
 C     -2.900490   -1.571769   -1.911034
 C     -3.231502   -2.244824   -0.725594
 H     -2.497129    2.550788   -1.187895
 C     -1.410640    4.967168   -0.542729
 H     -1.928139    0.213705   -2.701384
 C     -3.384005   -2.056432   -3.143368
 C     -4.051898   -3.393313   -0.783281
 C     -3.085714   -2.364440    1.825849
 N      0.167164    1.242408    0.319414
 N     -1.877633   -0.754097    0.493871
 C      2.075517    2.063070    1.537584
 C      0.957307    4.749733    0.925010
 C     -0.760446    6.086429   -0.108103
 C      0.437444    5.976773    0.635557
 H      1.872759    4.662072    1.495036
 H     -2.331330    5.045621   -1.109758
 H     -1.164520    7.070609   -0.331584
 H      0.943259    6.875973    0.976471
 C     -4.167704   -3.175076   -3.179423
 C     -4.507344   -3.850450   -1.985518
 H     -4.306972   -3.911030    0.131874
 H     -3.125907   -1.530130   -4.055371
 H     -4.537486   -3.548819   -4.130933
 H     -5.133116   -4.737637   -2.028249
 H      2.268412    1.007630    1.627740
 H      2.906518    2.560013    1.040131
 H      1.960545    2.496319    2.530548
 H     -2.784657   -3.407452    1.885321
 H     -2.619068   -1.802068    2.621412
 H     -4.171709   -2.308031    1.921716
