63

 Si    -0.253003   -2.177443   -0.374166
 O      1.308001   -1.785344   -0.488173
 C      2.551370   -1.713696    0.111552
 C      2.546376   -0.615665    1.137775
 H      3.246881   -1.432104   -0.686304
 C      1.463781   -0.464620    1.984438
 C      3.616000    0.263292    1.239626
 C      1.427266    0.567995    2.904918
 H      0.647228   -1.160966    1.925457
 C      3.593575    1.290041    2.169123
 H      4.476050    0.144036    0.590882
 C      2.493301    1.451067    2.999158
 H      0.567079    0.673964    3.559029
 H      4.438289    1.967763    2.244835
 H      2.472182    2.258060    3.725995
 C      3.028581   -3.036189    0.663919
 C      3.032686   -4.063350   -0.389549
 H      4.048581   -2.912198    1.048386
 H      2.392028   -3.360964    1.484284
 C      3.023816   -4.877821   -1.271376
 H      3.025451   -5.616831   -2.036874
 Cl    -1.244896   -3.302795   -1.723387
 Cl    -0.116508   -3.596608    1.106429
 O     -1.150945   -1.218221    0.708325
 O     -0.541238   -0.828116   -1.498826
 C     -1.961946    0.745924   -0.113648
 C     -0.559686    1.096313   -0.290766
 C      1.270757    0.546504   -1.701792
 C     -3.407970   -1.075014    0.404774
 C     -4.530669   -0.271747    0.060243
 C     -2.996100    1.550236   -0.429019
 C     -4.326951    1.057048   -0.344012
 C      0.062183    2.182655    0.201703
 C      1.382135    2.487086   -0.227766
 C      1.972113    1.685520   -1.216026
 H     -2.805281    2.556270   -0.776931
 C     -5.438266    1.858047   -0.679540
 H     -0.451314    2.825338    0.903888
 C      2.089052    3.596114    0.277668
 C      3.262126    2.003473   -1.692150
 C      1.761730   -0.318726   -2.799830
 N     -2.209914   -0.536484    0.303481
 N      0.101023    0.274378   -1.172447
 C     -3.518602   -2.478709    0.878420
 C     -5.845129   -0.788263    0.119530
 C     -6.700686    1.340903   -0.613287
 C     -6.906797    0.001306   -0.211334
 H     -6.000066   -1.814496    0.425414
 H     -5.274557    2.883633   -0.990416
 H     -7.555623    1.960570   -0.872146
 H     -7.916320   -0.398037   -0.166809
 C      3.339354    3.883118   -0.189336
 C      3.932905    3.078116   -1.186527
 H      3.712508    1.385369   -2.457372
 H      1.626638    4.212219    1.039845
 H      3.883115    4.738272    0.203828
 H      4.927240    3.319675   -1.552108
 H     -2.556822   -2.827675    1.224461
 H     -4.251155   -2.536879    1.681402
 H     -3.850494   -3.107304    0.051617
 H      2.718741   -0.759663   -2.545534
 H      1.043145   -1.099903   -2.986374
 H      1.887649    0.291529   -3.696581
