63

 Si    -0.116258   -1.491516   -0.742045
 O     -1.440081   -2.117751   -0.125390
 C     -2.616115   -2.636240   -0.684229
 C     -3.757911   -1.971338    0.003874
 H     -2.635313   -2.394045   -1.747302
 C     -3.820378   -2.005144    1.386566
 C     -4.699646   -1.250415   -0.707956
 C     -4.799928   -1.301011    2.059345
 H     -3.077833   -2.564361    1.937405
 C     -5.689997   -0.549033   -0.040271
 H     -4.655601   -1.222198   -1.789708
 C     -5.736560   -0.566188    1.343709
 H     -4.835018   -1.323982    3.144253
 H     -6.423397    0.017922   -0.605392
 H     -6.508607   -0.011291    1.869090
 C     -2.597977   -4.136790   -0.525274
 C     -1.483349   -4.735137   -1.279576
 H     -3.542241   -4.562980   -0.885400
 H     -2.493453   -4.383662    0.532261
 C     -0.567228   -5.188651   -1.909287
 H      0.240696   -5.599689   -2.466459
 Cl    -0.183025   -1.297391   -2.703660
 Cl     1.455700   -2.517600   -0.099471
 O      0.036051   -0.095243    0.176955
 O      1.896515    0.504545   -1.707370
 C      1.180711    1.855639    0.205023
 C      2.355626    1.018860    0.402743
 C      3.766869   -0.430427   -0.782738
 C     -1.148724    1.810356   -0.172639
 C     -1.206314    3.205841   -0.306674
 C      1.185470    3.207700    0.135719
 C      0.000498    3.918698   -0.143342
 C      3.078359    0.897515    1.531771
 C      4.232939    0.080728    1.548496
 C      4.592874   -0.575604    0.364404
 H      2.119789    3.734562    0.277288
 H      2.772056    1.437656    2.419420
 N      0.004454    1.194008    0.005489
 N      2.684906    0.335293   -0.765842
 C      0.005024    5.328583   -0.262097
 C     -1.149023    5.992633   -0.542679
 H     -1.147943    7.075663   -0.637251
 C     -2.360800    5.275779   -0.718634
 H     -3.273452    5.817468   -0.952599
 H      0.939644    5.861599   -0.130419
 C      5.024101   -0.062447    2.710657
 C      6.146935   -0.834301    2.681655
 H      6.760596   -0.947952    3.570626
 C      6.518286   -1.482813    1.482267
 H      4.723523    0.452519    3.616319
 H      7.420155   -2.088862    1.457035
 C      4.131896   -1.164394   -2.052505
 C     -2.329288    0.851530   -0.148528
 C     -2.393994    3.922175   -0.602562
 H     -3.322226    3.400488   -0.750814
 C      5.764013   -1.357655    0.352729
 H      6.071106   -1.854761   -0.549449
 F     -2.180207    0.061204   -1.174994
 F     -3.476425    1.457860   -0.232665
 F     -2.276415    0.183854    0.959586
 F      3.252183   -1.051229   -2.997362
 F      5.293620   -0.683102   -2.470985
 F      4.290130   -2.445476   -1.761120
