63

 Si    -0.095680   -1.483830    1.279724
 O      0.996057   -0.399756    0.881504
 C      2.394275   -0.504248    0.639023
 C      2.686079   -1.786721   -0.067189
 H      2.611874    0.315492   -0.026544
 C      2.905460   -2.969255    0.625267
 C      2.657942   -1.803335   -1.453423
 C      3.101205   -4.155694   -0.058970
 H      2.919077   -2.974223    1.705925
 C      2.852114   -2.988282   -2.143073
 H      2.464565   -0.890851   -1.994226
 C      3.075304   -4.167377   -1.446746
 H      3.272738   -5.074087    0.494489
 H      2.829385   -2.989352   -3.228631
 H      3.229899   -5.097940   -1.985664
 C      3.131188   -0.300017    1.933607
 C      2.752086    0.957176    2.593480
 H      4.210508   -0.294972    1.739747
 H      2.916414   -1.117079    2.621969
 C      2.434877    1.959871    3.170736
 H      2.172856    2.846683    3.691329
 Cl    -0.427977   -2.802035   -0.161595
 Cl     0.222790   -2.293342    3.055603
 O     -1.483621   -0.559834    1.442941
 O      0.431459    0.516919   -1.786827
 C     -1.835947    0.420114   -0.592541
 C     -0.838319    1.383619   -0.162608
 C      1.279358    2.274625   -0.600965
 C     -3.224671   -1.329853    0.199713
 C     -3.878667   -1.436880   -1.028807
 C     -2.428262    0.364250   -1.810453
 C     -3.435259   -0.584241   -2.068637
 C     -1.030789    2.223283    0.874670
 C     -0.059577    3.184673    1.211092
 C      1.107071    3.226244    0.439982
 H     -2.112780    1.058941   -2.574761
 H     -1.961680    2.171181    1.422792
 N     -2.217474   -0.486246    0.340628
 N      0.345212    1.371128   -0.901292
 C     -4.035429   -0.673465   -3.348243
 C     -5.024006   -1.578397   -3.576642
 H     -5.482768   -1.650277   -4.559743
 C     -5.464864   -2.438883   -2.534538
 H     -6.251029   -3.161823   -2.735695
 H     -3.688020   -0.012081   -4.133602
 C     -0.261330    4.113583    2.257913
 C      0.678703    5.065046    2.513925
 H      0.530570    5.787516    3.311332
 C      1.851702    5.115570    1.726053
 H     -1.174607    4.056727    2.839751
 H      2.598056    5.880496    1.924764
 C      2.567113    2.300401   -1.384166
 C     -3.571898   -2.035920    1.507270
 C     -4.914719   -2.371352   -1.295945
 H     -5.254978   -3.038918   -0.524335
 C      2.064197    4.221524    0.719051
 H      2.964420    4.285666    0.136189
 F     -2.587357   -2.810054    1.864609
 F     -4.666229   -2.741880    1.396808
 F     -3.754996   -1.088657    2.394775
 F      2.679157    1.333125   -2.246251
 F      2.663243    3.458992   -2.008524
 F      3.565985    2.198311   -0.516023
