63

 Si     0.587396   -1.045170    2.010523
 O      0.405827   -1.215648    0.448389
 C     -0.172410   -2.082592   -0.497855
 C     -1.573856   -1.638160   -0.759118
 H      0.411259   -1.942449   -1.394988
 C     -2.548623   -1.735983    0.221386
 C     -1.908064   -1.122557   -2.001619
 C     -3.849433   -1.348761   -0.039970
 H     -2.294531   -2.131049    1.191924
 C     -3.212034   -0.735902   -2.270718
 H     -1.145201   -1.026774   -2.763393
 C     -4.186736   -0.856640   -1.292088
 H     -4.603736   -1.441473    0.733712
 H     -3.466606   -0.349065   -3.252519
 H     -5.211092   -0.568380   -1.504982
 C     -0.052362   -3.514527   -0.045884
 C      1.349017   -3.857420    0.234837
 H     -0.437919   -4.171969   -0.833525
 H     -0.646895   -3.685657    0.851240
 C      2.499341   -4.102704    0.471878
 H      3.514160   -4.337189    0.688370
 Cl    -0.569445   -2.167638    3.157663
 Cl     2.460802   -1.088202    2.653382
 O      0.937117    0.062708   -1.896741
 O      0.169183    0.576280    2.148224
 C      1.391659    1.237030   -0.041404
 C     -0.042274    1.436459    0.039778
 C     -1.918245    1.234006    1.457970
 C      3.053040   -0.035586   -1.111531
 C      4.043678    0.465396   -0.226314
 C      2.288272    1.751170    0.825460
 C      3.649138    1.401019    0.743803
 C     -0.818411    1.914712   -0.959995
 C     -2.206903    2.049868   -0.786538
 C     -2.773660    1.708399    0.456379
 H      1.942215    2.419912    1.600126
 H     -0.347574    2.190834   -1.890504
 N      1.789934    0.387284   -1.064143
 N     -0.634826    1.066382    1.212568
 C      4.591882    1.945951    1.645653
 C      5.898419    1.570949    1.579142
 H      6.629575    1.985883    2.266590
 C      6.300386    0.634042    0.600336
 H      7.344398    0.337053    0.540442
 H      4.251889    2.662570    2.384605
 C     -3.035645    2.545267   -1.819929
 C     -4.371793    2.684487   -1.610575
 H     -5.011401    3.068762   -2.401245
 C     -4.944853    2.323486   -0.362778
 H     -2.584669    2.809573   -2.769213
 H     -6.016496    2.427833   -0.216194
 C     -2.478084    0.938388    2.848243
 C      3.257982   -1.051718   -2.212147
 C      5.404443    0.095947   -0.276750
 H      5.752370   -0.605678   -1.011575
 C     -4.171339    1.846120    0.643792
 H     -4.620805    1.563393    1.578725
 F      4.469061   -1.566843   -2.191620
 F      3.060806   -0.482462   -3.377407
 F      2.401708   -2.035757   -2.039080
 F     -1.556271    0.736363    3.736259
 F     -3.192120    1.983479    3.208294
 F     -3.250644   -0.117054    2.742649
