69

 Si     0.377565   -1.372346    2.178991
 O     -0.255817   -1.647896    0.753236
 C     -1.137046   -2.613708    0.256595
 C     -2.326711   -1.909234   -0.310018
 H     -1.459575   -3.238678    1.092091
 C     -2.205857   -1.142839   -1.457271
 C     -3.560322   -2.006166    0.316337
 C     -3.305262   -0.485337   -1.979710
 H     -1.246200   -1.063070   -1.939193
 C     -4.660294   -1.335415   -0.190962
 H     -3.669380   -2.610152    1.207603
 C     -4.536193   -0.578919   -1.345808
 H     -3.201965    0.095072   -2.889862
 H     -5.618966   -1.414870    0.312792
 H     -5.401818   -0.068393   -1.756276
 C     -0.390915   -3.455475   -0.741293
 C      0.764348   -4.103260   -0.107465
 H     -1.052407   -4.224340   -1.157191
 H     -0.043966   -2.818123   -1.545824
 C      1.702669   -4.609393    0.442657
 H      2.538869   -5.063207    0.917586
 Cl    -0.276812   -2.403663    3.735635
 Cl     2.353939   -1.485170    2.248602
 O      0.723452   -0.571919   -1.458881
 O      0.013886    0.265975    2.224443
 C      1.461573    0.827341    0.115672
 C      0.063255    1.212272    0.137111
 C     -1.953876    0.995037    1.333709
 C      2.921360   -0.699018   -0.900910
 C      4.014278   -0.122928   -0.195591
 C      2.441245    1.406220    0.850550
 C      3.778558    0.940322    0.683553
 C     -0.553998    1.880963   -0.877499
 C     -1.941134    2.155489   -0.766769
 C     -2.658799    1.716996    0.365580
 N      1.695284   -0.208451   -0.794992
 N     -0.658793    0.791347    1.205896
 C      4.856752    1.511034    1.392372
 C      6.125538    1.042576    1.220366
 H      6.952945    1.486295    1.766285
 C      6.360430   -0.019449    0.323106
 H      7.371922   -0.388678    0.176032
 H      4.666789    2.327882    2.075116
 C     -2.627047    2.869589   -1.777004
 C     -3.949390    3.157469   -1.646729
 H     -4.464853    3.713507   -2.425861
 C     -4.658524    2.745385   -0.492070
 H     -2.084072    3.191312   -2.654155
 H     -5.710471    2.996695   -0.387488
 C     -2.534290    0.320126    2.560193
 C      3.167529   -1.877142   -1.809317
 C      5.330575   -0.588337   -0.367343
 H      5.531382   -1.391543   -1.052243
 C     -4.034047    2.041045    0.484904
 H     -4.588769    1.743823    1.354960
 F      3.807183   -2.803595   -1.114958
 F      3.945585   -1.479838   -2.804208
 F      2.081349   -2.399302   -2.295746
 F     -2.008001    0.841326    3.632917
 F     -3.833707    0.399629    2.615157
 F     -2.200030   -0.938544    2.449329
 C      0.231937    2.324910   -2.068655
 H     -0.055885    1.733779   -2.937472
 H      0.046690    3.377325   -2.281072
 H      1.292789    2.192676   -1.907124
 C      2.116403    2.500552    1.813962
 H      2.373020    2.187453    2.825547
 H      2.691760    3.395594    1.575859
 H      1.064333    2.751380    1.792217
