69

 Si    -0.285304    1.486747    2.117913
 O      0.313723    1.677119    0.663624
 C      1.199051    2.598317    0.094869
 C      2.356473    1.840600   -0.469921
 H      1.558858    3.256563    0.888561
 C      2.185895    1.022436   -1.574335
 C      3.609411    1.938972    0.116495
 C      3.255186    0.315077   -2.094128
 H      1.211273    0.941309   -2.024969
 C      4.679526    1.219407   -0.387800
 H      3.757413    2.582840    0.973561
 C      4.505749    0.410940   -1.500209
 H      3.113109   -0.306449   -2.971319
 H      5.653736    1.301008    0.084807
 H      5.347686   -0.138911   -1.909116
 C      0.441022    3.406376   -0.921810
 C     -0.682940    4.107379   -0.288304
 H      1.104945    4.141296   -1.391765
 H      0.059010    2.739026   -1.685036
 C     -1.596022    4.657815    0.261716
 H     -2.409898    5.150423    0.736707
 Cl     0.434518    2.578813    3.602587
 Cl    -2.256094    1.646092    2.236900
 O     -0.753749    0.517005   -1.464336
 O      0.045600   -0.155054    2.234094
 C     -1.474352   -0.787273    0.197325
 C     -0.084090   -1.201104    0.198482
 C      1.971414   -0.968978    1.324927
 C     -2.931921    0.718249   -0.852906
 C     -4.015185    0.201792   -0.088952
 C     -2.443769   -1.308093    0.987222
 C     -3.775541   -0.821616    0.835315
 C      0.489443   -1.932213   -0.798616
 C      1.873026   -2.232298   -0.712922
 C      2.632520   -1.753818    0.375065
 N     -1.713366    0.207340   -0.756718
 N      0.677369   -0.744285    1.224270
 C     -4.843881   -1.332703    1.602167
 C     -6.107377   -0.845863    1.442701
 H     -6.927251   -1.243659    2.033523
 C     -6.346906    0.174789    0.499831
 H     -7.354575    0.558098    0.362945
 H     -4.650613   -2.118504    2.319539
 C      2.513643   -3.012180   -1.704097
 C      3.832832   -3.322995   -1.596697
 H      4.313076   -3.930086   -2.360047
 C      4.584116   -2.868996   -0.485168
 H      1.938259   -3.365777   -2.547685
 H      5.633148   -3.138291   -0.397560
 C      2.600996   -0.249143    2.500491
 C     -3.180114    1.855808   -1.811157
 C     -5.326381    0.686013   -0.247273
 H     -5.531082    1.457668   -0.966445
 C      4.003680   -2.102010    0.471562
 H      4.589868   -1.774177    1.309402
 F     -3.781488    2.828241   -1.146001
 F     -3.993618    1.427427   -2.763890
 F     -2.097808    2.330547   -2.351678
 F      2.095436   -0.707677    3.611212
 F      3.899509   -0.354030    2.522275
 F      2.289127    1.009810    2.339138
 C     -0.339495   -2.417456   -1.943624
 H     -0.057449   -1.884613   -2.851137
 H     -0.189759   -3.485221   -2.100839
 H     -1.391554   -2.244763   -1.764360
 C     -2.113261   -2.360849    1.994074
 H     -2.329892   -1.991668    2.996064
 H     -2.716393   -3.252177    1.819308
 H     -1.068516   -2.638412    1.952148
