69

 Si     0.405530   -1.232420   -2.288062
 O     -2.504318   -3.761519   -0.395071
 C     -3.511872   -3.557213    0.231950
 C     -4.411541   -2.385279    0.044498
 H     -3.847048   -4.238742    1.032745
 C     -4.192287   -1.507841   -1.008962
 C     -5.445109   -2.146939    0.937815
 C     -4.993993   -0.398873   -1.169890
 H     -3.384238   -1.711256   -1.696396
 C     -6.251345   -1.030131    0.783452
 H     -5.619120   -2.833186    1.759990
 C     -6.025756   -0.158591   -0.268801
 H     -4.824825    0.278209   -2.000454
 H     -7.060203   -0.844229    1.483349
 H     -6.664414    0.711210   -0.395426
 C      1.954074   -2.832115    0.968835
 C      1.082545   -2.617026    0.028337
 H      2.700721   -3.613521    0.854597
 H      1.914678   -2.246237    1.879079
 C      0.209635   -2.404749   -0.920919
 H     -0.737614   -2.942701   -0.889776
 Cl    -1.211031   -0.044191   -2.476696
 Cl     0.743240   -1.963933   -4.124983
 O      0.297342   -0.359469    1.479354
 O      1.678540   -0.155736   -1.964880
 C      0.700809    1.257260   -0.013890
 C      2.045449    0.720374    0.106904
 C      3.599146   -0.749557   -0.892911
 C     -1.477559    0.852687    0.781325
 C     -1.963978    1.965482    0.045683
 C      0.306850    2.287378   -0.799518
 C     -1.061847    2.685214   -0.755561
 C      2.823199    0.872349    1.215905
 C      4.045359    0.155325    1.291421
 C      4.451018   -0.667424    0.218111
 N     -0.185022    0.545776    0.790118
 N      2.445123   -0.108645   -0.894129
 C     -1.524071    3.781420   -1.515488
 C     -2.832049    4.160312   -1.469273
 H     -3.180336    5.006353   -2.054303
 C     -3.729572    3.452008   -0.644423
 H     -4.770142    3.760744   -0.589706
 H     -0.824069    4.323125   -2.136468
 C      4.864053    0.236640    2.442986
 C      6.028000   -0.462396    2.518595
 H      6.648283   -0.394418    3.408714
 C      6.436938   -1.281825    1.437325
 H      4.549524    0.859893    3.267944
 H      7.368670   -1.837097    1.504303
 C      3.820801   -1.574248   -2.152366
 C     -2.285335   -0.125310    1.598838
 C     -3.307337    2.385442    0.093828
 H     -4.010353    1.871716    0.720866
 C      5.673161   -1.381456    0.319256
 H      6.002783   -2.013316   -0.484052
 F     -3.577872    0.079101    1.476525
 F     -1.961571   -0.013117    2.867495
 F     -2.031265   -1.340377    1.175751
 F      3.742992   -0.783770   -3.186555
 F      4.976590   -2.181305   -2.161179
 F      2.867104   -2.473332   -2.176168
 C      1.294940    2.977170   -1.683026
 H      0.991587    2.872015   -2.724311
 H      1.344006    4.039962   -1.444167
 H      2.285355    2.553329   -1.573428
 C      2.365201    1.756119    2.331246
 H      2.059244    1.143998    3.179781
 H      3.165280    2.423991    2.647892
 H      1.519323    2.358888    2.026421
