69

 Si    -0.364180   -1.931563   -0.522919
 O      0.954692   -1.240017    0.034627
 C      2.306704   -1.563851    0.255999
 C      3.034169   -1.598186   -1.045075
 H      2.694665   -0.748457    0.857869
 C      2.481374   -2.254816   -2.129539
 C      4.240245   -0.935850   -1.190418
 C      3.099148   -2.214208   -3.363623
 H      1.559494   -2.799697   -2.012055
 C      4.869930   -0.896780   -2.422010
 H      4.688079   -0.434750   -0.343160
 C      4.294475   -1.525620   -3.514155
 H      2.649395   -2.724977   -4.209431
 H      5.810636   -0.366104   -2.529882
 H      4.782782   -1.488695   -4.483505
 C      2.443414   -2.830193    1.065187
 C      1.668254   -2.753296    2.314827
 H      3.502896   -2.975325    1.308844
 H      2.113975   -3.695076    0.491530
 C      1.025748   -2.684483    3.326701
 H      0.475098   -2.663024    4.236471
 Cl    -0.869158   -1.393385   -2.348909
 Cl    -0.385726   -3.896773   -0.293766
 O     -1.510367   -1.310112    0.521190
 O     -0.305939    1.495871   -1.570771
 C     -1.939893    0.900329    0.200866
 C     -0.556764    1.067083    0.605205
 C      1.556671    1.575157   -0.297566
 C     -3.584202   -0.746687   -0.214121
 C     -4.479290    0.214102   -0.701177
 C     -2.761153    1.904331   -0.217867
 C     -4.047817    1.559928   -0.712342
 C     -0.059888    0.841945    1.843298
 C      1.329546    1.058580    2.061088
 C      2.138143    1.474787    0.991164
 N     -2.367725   -0.385590    0.138700
 N      0.252326    1.393963   -0.477419
 C     -4.917017    2.551517   -1.225202
 C     -6.145604    2.217870   -1.704490
 H     -6.803185    2.987958   -2.099908
 C     -6.572704    0.866433   -1.696498
 H     -7.552491    0.608825   -2.089607
 H     -4.588952    3.581279   -1.238224
 C      1.905665    0.857455    3.334429
 C      3.232090    1.084741    3.545481
 H      3.668109    0.925896    4.527283
 C      4.031011    1.551338    2.481695
 H      1.278546    0.517432    4.146230
 H      5.083458    1.765330    2.650315
 C      2.276327    1.736528   -1.614708
 C     -3.844780   -2.233026   -0.011134
 C     -5.764853   -0.108792   -1.207031
 H     -6.100214   -1.129852   -1.221619
 C      3.499015    1.743847    1.240119
 H      4.127332    2.114490    0.451738
 F     -3.101583   -2.888661   -0.860654
 F     -5.101677   -2.539814   -0.200653
 F     -3.516701   -2.531338    1.219241
 F      2.032771    0.672426   -2.343947
 F      1.859276    2.817105   -2.229528
 F      3.580834    1.823312   -1.454681
 C     -2.288870    3.321011   -0.175362
 H     -2.089009    3.669053   -1.188883
 H     -3.041623    3.964752    0.278546
 H     -1.374747    3.405363    0.398314
 C     -0.961021    0.394359    2.945752
 H     -0.681122   -0.612741    3.249394
 H     -0.871674    1.055510    3.807101
 H     -1.996362    0.381833    2.632635
