69

 Si     0.118298   -1.964136   -1.315594
 O     -1.066266   -0.944706   -0.990837
 C     -2.387928   -1.037738   -1.468865
 C     -3.325564   -1.253673   -0.322565
 H     -2.428112   -1.908982   -2.131765
 C     -2.854898   -1.865436    0.825300
 C     -4.668248   -0.915082   -0.406776
 C     -3.704057   -2.129181    1.881760
 H     -1.816248   -2.126741    0.908478
 C     -5.522750   -1.177942    0.649111
 H     -5.062568   -0.452051   -1.301477
 C     -5.041816   -1.783433    1.799246
 H     -3.313105   -2.602152    2.775832
 H     -6.572386   -0.911390    0.569433
 H     -5.711711   -1.988609    2.628710
 C     -2.674444    0.189286   -2.300427
 C     -1.604621    0.437041   -3.276948
 H     -3.618600    0.060251   -2.839750
 H     -2.776100    1.060543   -1.663059
 C     -0.715820    0.622843   -4.062000
 H      0.047454    0.786319   -4.784487
 Cl     0.496385   -3.197671    0.182975
 Cl    -0.139900   -2.908013   -3.033884
 O      1.439821   -0.962379   -1.497320
 O     -0.108002   -0.465384    1.819797
 C      1.935009    0.045649    0.478536
 C      0.735929    0.815036    0.202741
 C     -1.406621    1.240392    1.047420
 C      3.361156   -1.591356   -0.463131
 C      4.174714   -1.595882    0.674181
 C      2.693165    0.133110    1.609034
 C      3.811357   -0.735174    1.736380
 C      0.626636    1.736329   -0.782485
 C     -0.589245    2.469559   -0.888135
 C     -1.586571    2.254484    0.068773
 N      2.270531   -0.853626   -0.476568
 N     -0.311426    0.491731    1.071322
 C      4.588793   -0.749734    2.918787
 C      5.663042   -1.576210    3.034385
 H      6.248517   -1.581724    3.950423
 C      6.023348   -2.436689    1.966571
 H      6.879485   -3.097475    2.072723
 H      4.312548   -0.099958    3.737124
 C     -0.795303    3.423241   -1.908100
 C     -1.950356    4.143891   -1.962715
 H     -2.105255    4.873762   -2.751812
 C     -2.940208    3.946214   -0.977891
 H     -0.026506    3.573134   -2.652853
 H     -3.856207    4.530649   -1.007234
 C     -2.452108    1.064741    2.117424
 C      3.593545   -2.316188   -1.782042
 C      5.301938   -2.445874    0.816890
 H      5.577858   -3.115099    0.021790
 C     -2.762158    3.027198    0.013842
 H     -3.528887    2.891623    0.753715
 F      2.648801   -3.199814   -1.948083
 F      4.758483   -2.907955   -1.814556
 F      3.546456   -1.409679   -2.726866
 F     -2.201751    0.098065    2.943854
 F     -2.529406    2.203961    2.791271
 F     -3.617969    0.846039    1.538641
 C      1.762445    1.992686   -1.717506
 H      1.488414    1.655733   -2.715614
 H      1.986478    3.057637   -1.760349
 H      2.659057    1.470150   -1.415604
 C      2.327829    1.109295    2.679568
 H      1.859078    0.580469    3.509932
 H      3.210585    1.631694    3.044624
 H      1.625964    1.844381    2.306703
