69

 Si    -0.257868   -1.925856    1.351549
 O      1.015854   -1.068676    0.914799
 C      2.349932   -1.327909    1.284822
 C      3.153911   -1.669097    0.069509
 H      2.333758   -2.193167    1.956538
 C      2.515513   -2.222344   -1.025808
 C      4.531122   -1.505236    0.038335
 C      3.233395   -2.598329   -2.143862
 H      1.448647   -2.347900   -1.019919
 C      5.254520   -1.881476   -1.079365
 H      5.054068   -1.091551    0.890257
 C      4.606487   -2.426659   -2.176447
 H      2.712539   -3.022390   -2.995209
 H      6.332515   -1.751333   -1.090036
 H      5.173562   -2.720909   -3.054351
 C      2.858444   -0.142963    2.069951
 C      1.914577    0.244210    3.127601
 H      3.820995   -0.387961    2.530776
 H      3.014981    0.704762    1.412364
 C      1.125074    0.545500    3.980066
 H      0.451368    0.807983    4.760134
 Cl    -0.914269   -3.108517   -0.090934
 Cl     0.019682   -2.886633    3.057392
 O     -1.421051   -0.761645    1.624884
 O     -0.104384   -0.484949   -1.814447
 C     -1.946784    0.291723   -0.319049
 C     -0.640527    0.902145   -0.154658
 C      1.460271    1.045307   -1.179800
 C     -3.486447   -1.144004    0.761815
 C     -4.385804   -1.049687   -0.304746
 C     -2.778755    0.469608   -1.385222
 C     -4.005284   -0.248401   -1.406680
 C     -0.332958    1.807156    0.803346
 C      0.971111    2.378656    0.797130
 C      1.849225    2.032852   -0.235322
 N     -2.313249   -0.552438    0.674194
 N      0.281041    0.442364   -1.100763
 C     -4.874026   -0.169157   -2.521053
 C     -6.050917   -0.851129   -2.535011
 H     -6.706582   -0.786278   -3.399780
 C     -6.427830   -1.652691   -1.427756
 H     -7.367190   -2.198434   -1.452999
 H     -4.586126    0.435254   -3.369572
 C      1.381722    3.302893    1.781764
 C      2.619841    3.869318    1.730019
 H      2.932253    4.576841    2.492379
 C      3.490380    3.541742    0.669993
 H      0.703420    3.553432    2.585080
 H      4.472540    4.004095    0.614663
 C      2.382689    0.729355   -2.327933
 C     -3.698716   -1.825611    2.106897
 C     -5.620329   -1.748398   -0.341022
 H     -5.912060   -2.372636    0.484443
 C      3.114166    2.648575   -0.289456
 H      3.792434    2.412679   -1.088203
 F     -2.864672   -2.822981    2.208988
 F     -4.923281   -2.261756    2.244439
 F     -3.457503   -0.927614    3.029862
 F      1.943231   -0.202212   -3.114752
 F      2.550228    1.844624   -3.024926
 F      3.554465    0.365345   -1.841377
 C     -1.344516    2.211690    1.824682
 H     -1.033251    1.846730    2.801804
 H     -1.426186    3.296801    1.869697
 H     -2.322670    1.807605    1.605491
 C     -2.381628    1.384644   -2.497629
 H     -2.050634    0.795259   -3.353167
 H     -3.218546    2.011516   -2.800831
 H     -1.565917    2.028265   -2.193580
