75

 Si    -0.885134   -0.703959    1.584984
 O     -2.078596   -0.559798    0.486624
 C     -2.404291   -1.120186   -0.739252
 C     -2.003867   -2.573706   -0.756745
 H     -3.501909   -1.068294   -0.802945
 C     -1.556798   -3.236600   -1.888092
 C     -2.131020   -3.285695    0.428083
 C     -1.233659   -4.585712   -1.832490
 H     -1.458463   -2.716301   -2.830591
 C     -1.804380   -4.626326    0.493937
 H     -2.498943   -2.780854    1.307496
 C     -1.351354   -5.284283   -0.642091
 H     -0.890535   -5.091023   -2.730961
 H     -1.909810   -5.157999    1.434762
 H     -1.099089   -6.339989   -0.599330
 C     -1.828534   -0.307793   -1.873193
 C     -2.395873    1.047323   -1.936647
 H     -2.057910   -0.786044   -2.830259
 H     -0.752054   -0.250093   -1.766519
 C     -2.899807    2.130615   -2.054256
 H     -3.342501    3.087856   -2.170622
 Cl     0.322631   -2.127661    2.366555
 Cl    -2.208126   -0.767697    3.157394
 O      0.133231   -0.618762    0.125435
 O     -0.260848    0.816044    1.988629
 C      1.814147    0.842150    0.436426
 C      0.768009    1.838339    0.243287
 C     -1.341241    2.610161    1.048673
 C      2.269493   -1.460411    0.037612
 C      3.656816   -1.205125    0.248754
 C      3.108324    1.127286    0.670349
 C      4.071482    0.084600    0.623532
 C      0.838583    2.818414   -0.676743
 C     -0.209005    3.769679   -0.775549
 C     -1.298336    3.674848    0.106223
 H      3.409412    2.148110    0.861647
 C      5.435038    0.339420    0.880500
 H      1.695902    2.877836   -1.332821
 C     -0.164320    4.806644   -1.730793
 C     -2.326356    4.641713    0.020780
 C     -2.417177    2.386284    2.063069
 N      1.431432   -0.457839    0.215324
 N     -0.334011    1.756240    1.054266
 C      1.671455   -2.733940   -0.481717
 C      4.634622   -2.214758    0.107494
 C      6.356379   -0.659812    0.757118
 C      5.949286   -1.951997    0.357812
 H      4.334915   -3.201952   -0.197955
 H      5.735346    1.339097    1.173255
 H      7.406405   -0.462512    0.956973
 H      6.688500   -2.740800    0.248926
 C     -1.171331    5.724723   -1.794513
 C     -2.264613    5.641677   -0.903103
 H     -3.168908    4.581436    0.688201
 H      0.681713    4.861882   -2.406198
 H     -1.134428    6.525319   -2.528994
 H     -3.061311    6.378600   -0.956856
 C      1.980964   -2.824907   -1.973631
 C      2.049065   -4.006222    0.265921
 H      0.602315   -2.593717   -0.371741
 C     -3.738258    2.019876    1.404700
 H     -2.099986    1.511071    2.617080
 C     -2.498585    3.532583    3.064270
 H      1.502366   -3.708429   -2.391952
 H      1.603237   -1.955035   -2.510321
 H      3.050241   -2.901830   -2.159836
 H      1.256590   -4.736933    0.116913
 H      2.966834   -4.454334   -0.103621
 H      2.148700   -3.840514    1.334911
 H     -3.602720    1.166946    0.748906
 H     -4.449743    1.740169    2.180646
 H     -4.169288    2.838203    0.836250
 H     -3.174168    3.244560    3.869965
 H     -1.522229    3.735105    3.505243
 H     -2.873918    4.455030    2.631410
