75

 Si     0.149107   -1.591045   -0.129695
 O      1.500542   -0.842663    0.346617
 C      2.460364   -1.106786    1.315360
 C      3.744438   -1.444259    0.615560
 H      2.141746   -1.973680    1.899535
 C      3.661711   -2.283262   -0.488090
 C      4.984551   -0.965170    1.008058
 C      4.794979   -2.626716   -1.202174
 H      2.699513   -2.670687   -0.785205
 C      6.127002   -1.310632    0.298510
 H      5.076408   -0.318967    1.871430
 C      6.035207   -2.136552   -0.810908
 H      4.711024   -3.283036   -2.063513
 H      7.092886   -0.928954    0.617434
 H      6.928872   -2.404226   -1.367542
 C      2.508606    0.084256    2.239684
 C      1.185657    0.316824    2.837231
 H      3.228531   -0.082503    3.048185
 H      2.819635    0.974785    1.696623
 C      0.098818    0.469620    3.322155
 H     -0.852835    0.604097    3.774079
 Cl    -0.052233   -2.529328   -1.908288
 Cl     0.312334   -3.297732    1.007332
 O     -1.199031   -1.129338    0.792321
 O     -0.196798   -0.119806   -1.052641
 C     -2.290244    0.734363    0.075885
 C     -1.042388    1.435347    0.345456
 C      1.158464    1.648409   -0.549216
 C     -3.305096   -1.423210   -0.043647
 C     -4.507126   -0.820884   -0.511229
 C     -3.403178    1.343571   -0.377587
 C     -4.555729    0.573851   -0.680598
 C     -0.903008    2.521306    1.125957
 C      0.330509    3.221859    1.124950
 C      1.348063    2.819462    0.240430
 H     -3.405971    2.414920   -0.522426
 C     -5.738230    1.185741   -1.148708
 H     -1.731638    2.865930    1.728861
 C      0.523083    4.345272    1.956297
 C      2.531517    3.589395    0.181919
 C      2.039371    1.102258   -1.633268
 N     -2.285990   -0.627699    0.228370
 N      0.021808    1.000559   -0.399789
 C     -3.093541   -2.885870    0.210669
 C     -5.667023   -1.578604   -0.795892
 C     -6.839511    0.429648   -1.425841
 C     -6.802896   -0.971121   -1.241412
 H     -5.652970   -2.645534   -0.653235
 H     -5.755444    2.261610   -1.280161
 H     -7.750172    0.902657   -1.784471
 H     -7.686308   -1.566581   -1.454802
 C      1.687279    5.054076    1.898387
 C      2.700101    4.674662    0.990304
 H      3.307689    3.315418   -0.510247
 H     -0.269446    4.633910    2.637107
 H      1.833452    5.918246    2.541295
 H      3.618547    5.252458    0.933423
 C     -3.899419   -3.336697    1.421992
 C     -3.305371   -3.745544   -1.029192
 H     -2.044942   -2.974995    0.475567
 C      3.542368    1.182317   -1.443643
 H      1.774850    0.053964   -1.671745
 C      1.594148    1.751998   -2.942822
 H     -3.654082   -4.374112    1.649425
 H     -3.652271   -2.736807    2.297876
 H     -4.972108   -3.274676    1.255400
 H     -2.879828   -4.731095   -0.840411
 H     -4.351999   -3.883367   -1.281430
 H     -2.793460   -3.324855   -1.892211
 H      3.841523    0.991563   -0.420707
 H      4.001378    0.414776   -2.064629
 H      3.958841    2.132605   -1.766911
 H      2.162013    1.331184   -3.772341
 H      0.538820    1.565903   -3.131470
 H      1.764535    2.828174   -2.931586
