75

 Si     0.086939   -1.202298    0.429196
 O      1.539519   -1.653900   -0.179176
 C      2.643120   -2.434167    0.088836
 C      3.762799   -1.925492   -0.774421
 H      2.922321   -2.340658    1.142487
 C      3.491714   -1.617316   -2.098881
 C      5.047441   -1.751287   -0.282486
 C      4.489333   -1.134008   -2.927800
 H      2.486893   -1.752533   -2.472644
 C      6.052953   -1.266553   -1.108471
 H      5.270653   -1.999226    0.749953
 C      5.775991   -0.956428   -2.431559
 H      4.265081   -0.897280   -3.963880
 H      7.057232   -1.134725   -0.715258
 H      6.563022   -0.579764   -3.078901
 C      2.355079   -3.891752   -0.211047
 C      1.480901   -4.526391    0.789817
 H      3.293813   -4.457115   -0.238465
 H      1.888965   -3.958474   -1.194440
 C      0.795044   -5.057584    1.620196
 H      0.191288   -5.534932    2.353321
 Cl     0.584854   -1.392324    2.389477
 Cl    -1.020788   -2.575687   -0.542740
 O      0.220811    0.144217   -0.625243
 O     -1.288369   -0.300401    1.076704
 C     -1.075618    1.937840   -0.155101
 C     -2.191397    1.066371   -0.500687
 C     -3.407027   -0.795038    0.361827
 C      1.286567    1.998083    0.177363
 C      1.183591    3.358746    0.585226
 C     -1.218347    3.225278    0.216766
 C     -0.078843    3.977777    0.600557
 C     -3.141901    1.347558   -1.410819
 C     -4.298293    0.526758   -1.488736
 C     -4.458283   -0.514327   -0.557200
 H     -2.203286    3.670510    0.241551
 C     -0.198220    5.324723    1.006415
 H     -3.036950    2.212581   -2.051094
 C     -5.310784    0.783497   -2.437008
 C     -5.658855   -1.258940   -0.574089
 C     -3.438218   -1.794163    1.483325
 N      0.172988    1.372919   -0.158562
 N     -2.322717   -0.044642    0.294921
 C      2.549437    1.200727    0.071483
 C      2.313676    4.115008    0.975273
 C      0.907793    6.029877    1.380357
 C      2.180615    5.414895    1.362557
 H      3.288069    3.657118    0.966348
 H     -1.179911    5.784399    1.015689
 H      0.814747    7.066827    1.692905
 H      3.057635    5.983120    1.660072
 C     -6.451219    0.033845   -2.445589
 C     -6.629441   -0.995539   -1.494900
 H     -5.803954   -2.042485    0.149053
 H     -5.168591    1.586479   -3.151222
 H     -7.230016    0.232952   -3.177281
 H     -7.545668   -1.579477   -1.497456
 C      3.474437    1.769214   -0.994263
 C      3.211282    1.006455    1.427681
 H      2.236765    0.220224   -0.265646
 C     -3.864644   -3.209427    1.114691
 H     -2.409120   -1.840770    1.827242
 C     -4.278523   -1.205053    2.614203
 H      4.310454    1.089588   -1.134639
 H      2.958300    1.861647   -1.949082
 H      3.875457    2.743760   -0.730959
 H      4.046338    0.319614    1.311930
 H      3.597474    1.928865    1.850005
 H      2.515652    0.567070    2.139010
 H     -3.495982   -3.506038    0.136433
 H     -3.441575   -3.895814    1.848716
 H     -4.941983   -3.346275    1.141109
 H     -4.253331   -1.875726    3.473243
 H     -3.886666   -0.239670    2.933936
 H     -5.318523   -1.074864    2.319870
