75

 Si     0.912341   -0.400491   -0.042234
 O      1.062336   -1.906482    0.557857
 C      1.875576   -2.855171    1.151300
 C      3.175330   -2.971360    0.409472
 H      1.341790   -3.808409    1.061167
 C      4.174606   -2.020365    0.547789
 C      3.352507   -4.010415   -0.492443
 C      5.333475   -2.101326   -0.204022
 H      4.046901   -1.204156    1.242700
 C      4.510998   -4.098942   -1.249292
 H      2.580201   -4.762026   -0.607434
 C      5.504520   -3.141774   -1.107389
 H      6.107959   -1.349881   -0.082341
 H      4.637370   -4.919348   -1.949726
 H      6.414539   -3.208280   -1.696828
 C      2.018368   -2.526299    2.618997
 C      0.698123   -2.416386    3.261162
 H      2.603379   -3.299451    3.131651
 H      2.536401   -1.576171    2.734726
 C     -0.385032   -2.323816    3.771032
 H     -1.325209   -2.249465    4.260801
 Cl     2.060846    0.695777    1.191178
 Cl     1.776868   -0.863142   -1.824942
 O      0.151827    0.896264   -0.945761
 O     -0.601943   -0.392953    0.796146
 C     -1.375189    2.015639    0.324218
 C     -2.250779    0.908772   -0.034551
 C     -2.385997   -1.468682   -0.141584
 C      0.681296    3.032264   -0.331412
 C      0.335959    4.185425    0.428135
 C     -1.724169    3.067302    1.088043
 C     -0.848310    4.180511    1.186275
 C     -3.467559    1.061885   -0.593523
 C     -4.208241   -0.081043   -0.989027
 C     -3.654922   -1.356329   -0.778506
 H     -2.678536    3.071079    1.596235
 C     -1.178724    5.298821    1.980583
 H     -3.856371    2.055505   -0.768872
 C     -5.469408    0.045665   -1.611126
 C     -4.376188   -2.489766   -1.220940
 C     -1.684424   -2.741037    0.213269
 N     -0.153306    2.008938   -0.299220
 N     -1.752827   -0.352175    0.168600
 C      1.855856    2.882855   -1.254976
 C      1.152023    5.338771    0.453977
 C     -0.361227    6.391266    2.004284
 C      0.815329    6.413344    1.222489
 H      2.047756    5.364856   -0.141889
 H     -2.091865    5.275733    2.564286
 H     -0.617944    7.251770    2.616830
 H      1.453943    7.292253    1.233355
 C     -6.148647   -1.064782   -2.018460
 C     -5.589893   -2.348967   -1.824932
 H     -3.955034   -3.471770   -1.088004
 H     -5.882558    1.036478   -1.761937
 H     -7.118768   -0.966074   -2.498796
 H     -6.131111   -3.228480   -2.162787
 C      1.533312    3.619787   -2.551938
 C      3.214656    3.267361   -0.684141
 H      1.886983    1.821085   -1.479657
 C     -1.174403   -3.435453   -1.041607
 H     -0.812411   -2.428421    0.773440
 C     -2.507940   -3.631781    1.132992
 H      2.337774    3.460297   -3.269952
 H      0.611391    3.246388   -2.997062
 H      1.430873    4.692117   -2.393793
 H      3.981780    2.722748   -1.235406
 H      3.437249    4.324689   -0.796099
 H      3.308561    2.998192    0.364574
 H     -0.519736   -2.776771   -1.607460
 H     -0.591353   -4.309123   -0.756799
 H     -1.978279   -3.768942   -1.693163
 H     -1.865086   -4.421575    1.521040
 H     -2.889039   -3.069261    1.984627
 H     -3.348578   -4.107297    0.636794
