75

 Si     0.361452   -1.272013    1.292645
 O      1.907917   -1.836565    1.222295
 C      2.554796   -2.562624    0.230398
 C      2.448454   -1.766626   -1.040976
 H      2.039585   -3.515814    0.089233
 C      3.255252   -0.666618   -1.260966
 C      1.401235   -2.014828   -1.913050
 C      2.989802    0.210260   -2.296669
 H      4.092789   -0.483680   -0.606785
 C      1.130283   -1.148024   -2.955697
 H      0.780015   -2.887377   -1.765441
 C      1.913535   -0.019781   -3.140008
 H      3.631420    1.071527   -2.456137
 H      0.308518   -1.360758   -3.632376
 H      1.706397    0.664381   -3.958154
 C      3.959843   -2.839563    0.698268
 C      3.954387   -3.681167    1.905747
 H      4.535229   -3.346214   -0.086650
 H      4.459314   -1.898918    0.930202
 C      3.932850   -4.372701    2.886911
 H      3.934503   -4.990946    3.752652
 Cl     0.348739   -1.006923    3.286144
 Cl    -0.566865   -2.931676    0.620928
 O      0.902928   -0.140961    0.139270
 O     -1.092676   -0.264302    1.247591
 C     -0.508770    1.446489   -0.620029
 C     -1.428369    0.359359   -0.925642
 C     -2.932482   -1.117998    0.191984
 C      1.449188    2.008246    0.617496
 C      1.187832    3.389198    0.387331
 C     -0.777807    2.740372   -0.889775
 C      0.084800    3.754856   -0.404534
 C     -2.024031    0.163674   -2.115862
 C     -3.126718   -0.726252   -2.209808
 C     -3.629198   -1.312043   -1.034585
 H     -1.674737    2.999919   -1.434683
 C     -0.177741    5.118455   -0.662530
 H     -1.687022    0.716064   -2.981650
 C     -3.767878   -0.964088   -3.443349
 C     -4.799308   -2.098956   -1.116893
 C     -3.350358   -1.602768    1.550800
 N      0.616602    1.131263    0.088883
 N     -1.847104   -0.365253    0.166466
 C      2.577649    1.446019    1.429557
 C      2.003797    4.413073    0.923200
 C      0.632307    6.084233   -0.142628
 C      1.735291    5.724024    0.665417
 H      2.842789    4.153275    1.545045
 H     -1.032218    5.380435   -1.276062
 H      0.430049    7.133425   -0.342185
 H      2.371498    6.498524    1.084920
 C     -4.883014   -1.749457   -3.498542
 C     -5.410202   -2.315525   -2.316802
 H     -5.208987   -2.531242   -0.220568
 H     -3.364128   -0.509153   -4.340666
 H     -5.375190   -1.932305   -4.450327
 H     -6.307652   -2.926031   -2.364658
 C      3.949582    1.846299    0.903323
 C      2.392251    1.790773    2.903727
 H      2.486804    0.368705    1.328053
 C     -3.738920   -3.071726    1.660459
 H     -2.471485   -1.449395    2.170492
 C     -4.448471   -0.671017    2.059474
 H      4.701696    1.199362    1.354934
 H      4.014918    1.735966   -0.175605
 H      4.212761    2.868986    1.154224
 H      3.130008    1.245457    3.491200
 H      2.527266    2.851237    3.097120
 H      1.406587    1.498814    3.256638
 H     -3.135089   -3.705305    1.016624
 H     -3.572703   -3.393349    2.688986
 H     -4.788629   -3.247377    1.442263
 H     -4.720797   -0.950930    3.077195
 H     -4.109850    0.364744    2.078552
 H     -5.344522   -0.729166    1.443645
