75

 Si     0.199782   -1.171891    0.724141
 O      1.870749   -1.478261   -0.004292
 C      2.852912   -2.088337    0.394456
 C      4.118952   -2.106337   -0.320631
 H      2.793586   -2.651063    1.329563
 C      4.205632   -1.530835   -1.588866
 C      5.238454   -2.693134    0.265102
 C      5.407373   -1.532816   -2.263432
 H      3.315918   -1.100787   -2.029050
 C      6.447876   -2.690151   -0.411325
 H      5.159852   -3.144526    1.249324
 C      6.529522   -2.110967   -1.669836
 H      5.481297   -1.091793   -3.252840
 H      7.325901   -3.141586    0.040913
 H      7.478214   -2.111049   -2.201413
 C      3.476970   -0.022771    2.722168
 C      2.238344    0.073724    2.310729
 H      4.281713    0.536728    2.256558
 H      3.714663   -0.648143    3.579895
 C      1.006213    0.098276    1.882911
 H      0.365455    0.834749    2.356634
 Cl    -0.540185   -2.473440   -0.763876
 Cl     0.314107   -2.712855    2.150867
 O     -1.357139   -0.591212    1.290875
 O      0.034309    0.018441   -0.600225
 C     -2.462290    0.548556   -0.312522
 C     -1.477703    1.597984   -0.065507
 C      0.821756    2.150651   -0.354525
 C     -3.280828   -1.543941    0.483761
 C     -4.363051   -1.455212   -0.438767
 C     -3.449623    0.658425   -1.220771
 C     -4.425728   -0.366440   -1.323723
 C     -1.796388    2.857681    0.290976
 C     -0.784261    3.850416    0.344225
 C      0.526389    3.506603   -0.029617
 H     -3.504051    1.533157   -1.853556
 C     -5.473588   -0.283613   -2.265678
 H     -2.825538    3.111076    0.505305
 C     -1.087454    5.181382    0.707746
 C      1.505272    4.526090   -0.073179
 C      2.127582    1.599114   -0.843039
 N     -2.386946   -0.572924    0.473504
 N     -0.166266    1.277251   -0.314333
 C     -3.094486   -2.599924    1.530936
 C     -5.382006   -2.432862   -0.495734
 C     -6.434203   -1.251198   -2.312100
 C     -6.390196   -2.336221   -1.408351
 H     -5.360279   -3.259509    0.192899
 H     -5.502657    0.561460   -2.943883
 H     -7.241293   -1.185516   -3.037125
 H     -7.165874   -3.096261   -1.439821
 C     -0.118288    6.140151    0.679819
 C      1.194005    5.807128    0.273251
 H      2.505313    4.285862   -0.388746
 H     -2.102097    5.424819    1.001872
 H     -0.353309    7.163999    0.958680
 H      1.958366    6.578398    0.235235
 C     -4.121991   -2.395872    2.639311
 C     -3.053382   -4.026188    1.002036
 H     -2.111176   -2.397089    1.943771
 C      3.376286    2.040538   -0.094813
 H      2.022520    0.530531   -0.701873
 C      2.222470    1.864162   -2.342826
 H     -3.925280   -3.100118    3.447750
 H     -4.059668   -1.388828    3.052167
 H     -5.139817   -2.560362    2.291814
 H     -2.617523   -4.661662    1.772674
 H     -4.034808   -4.428252    0.770156
 H     -2.424127   -4.096374    0.119423
 H      3.196626    2.158376    0.969413
 H      4.140705    1.274437   -0.221157
 H      3.797678    2.963943   -0.481619
 H      3.140137    1.430853   -2.740116
 H      1.382844    1.414267   -2.871019
 H      2.237754    2.931091   -2.560673
