75

 Si     0.536630   -1.446189    1.702779
 O     -0.677332   -2.073031    0.825713
 C     -0.776692   -2.454844   -0.506367
 C     -1.621462   -1.455853   -1.240122
 H      0.211260   -2.450976   -0.959039
 C     -3.001214   -1.440878   -1.108663
 C     -1.013172   -0.511382   -2.052869
 C     -3.765644   -0.506646   -1.788379
 H     -3.488860   -2.176028   -0.484008
 C     -1.770125    0.423982   -2.739187
 H      0.060847   -0.516555   -2.156684
 C     -3.150913    0.424474   -2.612493
 H     -4.846224   -0.518316   -1.685771
 H     -1.281156    1.146573   -3.385680
 H     -3.748596    1.144467   -3.161833
 C     -1.299619   -3.871859   -0.539226
 C     -0.317382   -4.783191    0.071441
 H     -1.493128   -4.191118   -1.570547
 H     -2.234632   -3.931447    0.018270
 C      0.510178   -5.492346    0.575031
 H      1.229688   -6.136719    1.021290
 Cl    -0.105123   -2.284160    3.464136
 Cl     2.462237   -2.000332    1.956716
 O      0.958806   -0.669542    0.140447
 O      0.173675    0.133678    2.214922
 C      1.442671    1.503901    0.422344
 C     -0.005949    1.623077    0.513028
 C     -1.947203    0.783936    1.613007
 C      3.084173   -0.001231   -0.418558
 C      4.044225    1.053246   -0.380235
 C      2.316957    2.523427    0.502073
 C      3.673628    2.305374    0.141251
 C     -0.732280    2.443326   -0.267918
 C     -2.145768    2.445826   -0.162685
 C     -2.758407    1.592833    0.769346
 H      1.975977    3.504330    0.804084
 C      4.626909    3.341661    0.229435
 H     -0.235163    3.078043   -0.987803
 C     -2.935723    3.283511   -0.976197
 C     -4.169081    1.583075    0.853608
 C     -2.437395   -0.020442    2.776596
 N      1.880787    0.253978    0.057519
 N     -0.642176    0.813824    1.416633
 C      3.266167   -1.346644   -1.060037
 C      5.369018    0.877756   -0.838270
 C      5.906336    3.137836   -0.199571
 C      6.278065    1.890457   -0.748082
 H      5.662163   -0.068225   -1.258902
 H      4.324140    4.298530    0.639360
 H      6.640098    3.936610   -0.129218
 H      7.294414    1.737549   -1.100468
 C     -4.294913    3.260703   -0.868800
 C     -4.918592    2.392981    0.054501
 H     -4.654299    0.925323    1.554155
 H     -2.444978    3.939268   -1.685838
 H     -4.903161    3.907777   -1.495720
 H     -6.002323    2.374024    0.129447
 C      3.202956   -1.163418   -2.575314
 C      4.493656   -2.139511   -0.625842
 H      2.387462   -1.906462   -0.755279
 C     -3.274414   -1.217558    2.361517
 H     -1.540087   -0.419643    3.234956
 C     -3.102785    0.880459    3.812076
 H      3.247800   -2.137538   -3.062887
 H      2.273741   -0.681616   -2.878737
 H      4.033285   -0.564952   -2.944436
 H      4.290887   -3.200199   -0.775412
 H      5.375072   -1.902062   -1.214751
 H      4.727385   -1.993259    0.425234
 H     -2.709852   -1.845674    1.684068
 H     -3.506958   -1.803780    3.249437
 H     -4.213596   -0.938721    1.894253
 H     -3.291353    0.297407    4.713732
 H     -2.452164    1.711686    4.084689
 H     -4.051394    1.287441    3.474731
