75

 Si     0.108092   -1.562825   -1.222538
 O      1.607153   -1.108236   -0.839619
 C      2.704246   -1.318523   -0.022395
 C      2.355840   -1.019161    1.406862
 H      3.451633   -0.588158   -0.344025
 C      3.171000   -0.194895    2.168509
 C      1.215379   -1.555488    1.977532
 C      2.837019    0.106331    3.479984
 H      4.076024    0.216758    1.738276
 C      0.862837   -1.241870    3.277042
 H      0.599985   -2.218547    1.397510
 C      1.673521   -0.405933    4.033945
 H      3.486814    0.746115    4.069111
 H     -0.041398   -1.663882    3.705120
 H      1.405157   -0.166022    5.059100
 C      3.304145   -2.692324   -0.204975
 C      3.633031   -2.932730   -1.618485
 H      4.219286   -2.768179    0.395127
 H      2.608115   -3.456270    0.135255
 C      3.885860   -3.099796   -2.780040
 H      4.120437   -3.269411   -3.803872
 Cl    -0.495833   -1.834799   -3.129645
 Cl     0.204077   -3.557454   -0.732243
 O     -0.936547   -1.355630    0.101047
 O     -0.248440    0.148912   -1.512072
 C     -1.705017    0.749322    0.480352
 C     -0.305418    1.153932    0.515291
 C      1.510198    1.495676   -0.992887
 C     -3.178388   -1.032388   -0.117002
 C     -4.291671   -0.166895    0.076157
 C     -2.730482    1.601873    0.677020
 C     -4.065010    1.157265    0.491232
 C      0.294388    1.851073    1.496923
 C      1.589449    2.386402    1.276896
 C      2.190041    2.234854    0.015200
 H     -2.528655    2.629091    0.947035
 C     -5.157350    2.028053    0.693708
 H     -0.218247    2.016443    2.434035
 C      2.258050    3.106616    2.289120
 C      3.463135    2.807087   -0.205392
 C      1.894588    1.381338   -2.439070
 N     -1.974222   -0.541859    0.110150
 N      0.359884    0.949413   -0.665566
 C     -3.238285   -2.471549   -0.536792
 C     -5.624740   -0.598347   -0.117263
 C     -6.433164    1.587074    0.496441
 C     -6.667993    0.254602    0.087456
 H     -5.816525   -1.611955   -0.426109
 H     -4.964216    3.047224    1.008512
 H     -7.273439    2.258241    0.654870
 H     -7.686825   -0.091383   -0.063671
 C      3.489980    3.641607    2.054317
 C      4.100782    3.486689    0.789507
 H      3.932169    2.701748   -1.169462
 H      1.778064    3.220375    3.253782
 H      4.004221    4.192909    2.837300
 H      5.081544    3.917698    0.607659
 C     -3.885725   -3.332291    0.539804
 C     -3.849646   -2.637286   -1.922635
 H     -2.202446   -2.788743   -0.611081
 C      3.197646    0.658584   -2.726122
 H      1.100952    0.784138   -2.879318
 C      1.832019    2.771618   -3.073147
 H     -3.803317   -4.381403    0.255433
 H     -3.377072   -3.205398    1.495579
 H     -4.939303   -3.106395    0.681470
 H     -3.698463   -3.666133   -2.249262
 H     -4.916254   -2.436314   -1.944349
 H     -3.360098   -1.986034   -2.644657
 H      3.158022   -0.364044   -2.377140
 H      3.348047    0.636652   -3.805509
 H      4.064396    1.144530   -2.289594
 H      1.949269    2.679916   -4.153128
 H      0.870890    3.250094   -2.883839
 H      2.616803    3.428297   -2.706762
