75

 Si     0.663884   -0.860838    1.616292
 O      0.707261   -2.033629    0.487476
 C      1.379259   -2.276103   -0.700869
 C      2.787723   -1.746648   -0.606400
 H      1.432418   -3.371875   -0.790077
 C      3.485405   -1.214750   -1.678487
 C      3.423324   -1.839068    0.624278
 C      4.792547   -0.774317   -1.519714
 H      3.026039   -1.139886   -2.654228
 C      4.720976   -1.396483    0.792664
 H      2.893862   -2.272930    1.457978
 C      5.413276   -0.858037   -0.284244
 H      5.326268   -0.365805   -2.373272
 H      5.192833   -1.477653    1.767193
 H      6.435705   -0.512732   -0.160267
 C      0.598183   -1.746721   -1.878701
 C     -0.688342   -2.437026   -2.053860
 H      1.162736   -1.902696   -2.802893
 H      0.430687   -0.683887   -1.753191
 C     -1.706859   -3.037587   -2.261805
 H     -2.607306   -3.564273   -2.456009
 Cl     1.913729    0.445509    2.526214
 Cl     0.729892   -2.213607    3.162962
 O      0.596476    0.183794    0.174605
 O     -0.931282   -0.382123    1.915455
 C     -1.029522    1.720210    0.404417
 C     -1.910258    0.595259    0.116620
 C     -2.548678   -1.592003    0.824596
 C      1.246271    2.387515    0.195074
 C      0.851899    3.740638    0.413923
 C     -1.446816    2.977421    0.641268
 C     -0.494645    4.029827    0.694588
 C     -2.821671    0.601572   -0.873992
 C     -3.665713   -0.522742   -1.063041
 C     -3.539648   -1.620377   -0.195579
 H     -2.502103    3.181991    0.759019
 C     -0.889934    5.358277    0.957732
 H     -2.908373    1.466111   -1.517479
 C     -4.627305   -0.547147   -2.094774
 C     -4.401269   -2.727204   -0.372564
 C     -2.305950   -2.668147    1.834397
 N      0.312626    1.459743    0.276986
 N     -1.789425   -0.515076    0.911280
 C      2.603589    1.919262   -0.237943
 C      1.777667    4.806816    0.372686
 C      0.028967    6.366967    0.931597
 C      1.379310    6.086099    0.627145
 H      2.808497    4.603018    0.141199
 H     -1.931971    5.561334    1.177211
 H     -0.276410    7.389804    1.136488
 H      2.104469    6.894599    0.595704
 C     -5.444155   -1.629249   -2.245866
 C     -5.330750   -2.731719   -1.369239
 H     -4.316189   -3.576608    0.283353
 H     -4.705754    0.305642   -2.759312
 H     -6.185784   -1.646703   -3.040512
 H     -5.987594   -3.588423   -1.492993
 C      2.776037    2.276890   -1.711896
 C      3.777587    2.388464    0.611921
 H      2.552889    0.839316   -0.161722
 C     -1.774743   -3.935817    1.183478
 H     -1.506460   -2.288863    2.459183
 C     -3.511793   -2.873592    2.743706
 H      3.729044    1.892734   -2.070817
 H      1.987430    1.836440   -2.321350
 H      2.766929    3.353494   -1.869433
 H      4.582577    1.663062    0.511391
 H      4.173300    3.346983    0.288636
 H      3.522604    2.453581    1.665904
 H     -0.891382   -3.710376    0.596262
 H     -1.489205   -4.637679    1.966061
 H     -2.506811   -4.424556    0.548013
 H     -3.226896   -3.544386    3.554476
 H     -3.829024   -1.930096    3.188844
 H     -4.364155   -3.312931    2.234252
