75

 Si     0.484571   -1.521927    1.651307
 O     -0.642022   -2.142479    0.660577
 C     -0.637341   -2.448828   -0.694575
 C     -1.470021   -1.439251   -1.427590
 H      0.377732   -2.384083   -1.077150
 C     -2.854884   -1.477920   -1.385332
 C     -0.847120   -0.433761   -2.151204
 C     -3.609099   -0.535632   -2.065355
 H     -3.353250   -2.261608   -0.832324
 C     -1.593502    0.510377   -2.837096
 H      0.230831   -0.397161   -2.185266
 C     -2.978648    0.457538   -2.800270
 H     -4.692787   -0.589147   -2.033595
 H     -1.091922    1.282012   -3.413509
 H     -3.566838    1.184700   -3.350431
 C     -1.101807   -3.878869   -0.842490
 C     -0.128988   -4.789494   -0.215913
 H     -1.212038   -4.144343   -1.900971
 H     -2.069676   -4.002942   -0.356290
 C      0.689155   -5.497729    0.304084
 H      1.401077   -6.141714    0.762899
 Cl    -0.234417   -2.486667    3.315286
 Cl     2.411513   -2.013626    2.006028
 O      0.976329   -0.641294    0.165963
 O      0.023846    0.010812    2.223907
 C      1.344451    1.530317    0.596741
 C     -0.110820    1.585252    0.595993
 C     -2.080532    0.612486    1.521365
 C      3.103100    0.142270   -0.207512
 C      4.011126    1.230602   -0.046370
 C      2.165500    2.578523    0.790098
 C      3.551487    2.435993    0.512957
 C     -0.820361    2.418054   -0.187125
 C     -2.236416    2.359829   -0.174714
 C     -2.870255    1.434891    0.670495
 H      1.761995    3.526441    1.119147
 C      4.450093    3.503560    0.721224
 H     -0.306068    3.111009   -0.837899
 C     -3.007944    3.210334   -0.992648
 C     -4.281905    1.367047    0.662695
 C     -2.608734   -0.275310    2.604878
 N      1.860605    0.321406    0.197684
 N     -0.768079    0.703344    1.412233
 C      3.386697   -1.155723   -0.907149
 C      5.370371    1.134030   -0.419102
 C      5.763207    3.375477    0.372316
 C      6.225771    2.176008   -0.212891
 H      5.732504    0.225069   -0.866780
 H      4.078454    4.423336    1.158485
 H      6.454662    4.198189    0.534880
 H      7.269458    2.083781   -0.500527
 C     -4.369042    3.130172   -0.974673
 C     -5.012777    2.190087   -0.140182
 H     -4.782440    0.654156    1.295219
 H     -2.501279    3.922133   -1.633774
 H     -4.963172    3.787043   -1.604926
 H     -6.097343    2.125513   -0.137030
 C      3.418490   -0.888671   -2.410834
 C      4.615712   -1.922438   -0.431601
 H      2.515021   -1.766933   -0.695035
 C     -3.365607   -1.478235    2.069627
 H     -1.726313   -0.664897    3.099037
 C     -3.377048    0.537423    3.642057
 H      3.538116   -1.830731   -2.946401
 H      2.492358   -0.426497   -2.751888
 H      4.245588   -0.238040   -2.687335
 H      4.468234   -2.980649   -0.648498
 H      5.523051   -1.619701   -0.946583
 H      4.772962   -1.824450    0.639098
 H     -2.732422   -2.043906    1.397788
 H     -3.629646   -2.123498    2.906319
 H     -4.283796   -1.209414    1.556935
 H     -3.599221   -0.104334    4.494840
 H     -2.780686    1.375389    4.003667
 H     -4.317799    0.927300    3.265007
