81

 Si    -0.488724    1.245995    1.408180
 O      0.822461    1.529080    0.444978
 C      0.959746    2.043605   -0.825070
 C      2.300031    1.658411   -1.374196
 H      0.186972    1.642085   -1.476315
 C      3.447603    2.002601   -0.676345
 C      2.414845    1.002047   -2.589445
 C      4.698465    1.704771   -1.186597
 H      3.354044    2.519412    0.267862
 C      3.666430    0.706823   -3.111054
 H      1.523673    0.736232   -3.146638
 C      4.809634    1.060686   -2.412846
 H      5.589895    1.987280   -0.634112
 H      3.746307    0.206707   -4.071568
 H      5.789941    0.838454   -2.824132
 C      0.817480    3.551193   -0.771094
 C     -0.457035    3.969266   -0.170958
 H      0.897128    3.980195   -1.776667
 H      1.621636    3.963737   -0.161844
 C     -1.483741    4.311106    0.348741
 H     -2.388150    4.616632    0.816486
 Cl     0.318568    2.437738    2.866886
 Cl    -2.371096    1.383458    2.205955
 O     -1.180368    0.681258   -0.111789
 O     -0.115084   -0.322931    1.910234
 C     -1.454661   -1.504151    0.171627
 C     -0.004768   -1.500290    0.016224
 C      1.995138   -0.996199    1.222017
 C     -3.349033   -0.135081   -0.293102
 C     -4.189018   -1.222596    0.132675
 C     -2.195694   -2.582526    0.461890
 C     -3.607723   -2.440734    0.525255
 C      0.656433   -2.058775   -1.006600
 C      2.074081   -2.011724   -1.012916
 C      2.747088   -1.461043    0.091282
 H     -1.720684   -3.533355    0.659853
 C     -4.415885   -3.511415    0.959464
 H      0.112598   -2.528576   -1.814470
 C      2.798930   -2.527478   -2.106166
 C      4.155763   -1.370101    0.022161
 C      2.613563   -0.707600    2.586736
 N     -2.056877   -0.295030   -0.084102
 N      0.691397   -0.931503    1.052520
 C     -3.865615    1.066930   -1.077160
 C     -5.594185   -1.100939    0.235872
 C     -5.769887   -3.365363    1.039709
 C     -6.362004   -2.135775    0.683081
 H     -6.074007   -0.171530   -0.012807
 H     -3.939535   -4.443705    1.240407
 H     -6.391239   -4.187053    1.385800
 H     -7.437808   -2.009089    0.766925
 C      4.160211   -2.464370   -2.121414
 C      4.842825   -1.857450   -1.048132
 H      4.701985   -0.885685    0.810581
 H      2.252921   -2.967483   -2.932458
 H      4.718831   -2.861601   -2.964619
 H      5.924743   -1.769679   -1.076122
 C     -4.723747    0.504584   -2.227021
 C     -4.659747    2.029722   -0.197072
 C     -2.751293    1.853074   -1.759436
 C      3.343156    0.630338    2.537028
 C      1.600872   -0.670218    3.730739
 C      3.542655   -1.883468    2.941460
 H     -5.058570    1.326759   -2.855317
 H     -4.142641   -0.168299   -2.854943
 H     -5.608758   -0.027404   -1.904902
 H     -5.506270    1.566922    0.297159
 H     -4.024846    2.459462    0.569350
 H     -5.046240    2.839284   -0.813335
 H      2.648407    1.420974    2.279839
 H      3.761532    0.850568    3.516963
 H      4.158937    0.644600    1.824105
 H      3.978637   -1.702440    3.921113
 H      2.980041   -2.813249    3.001450
 H      4.364722   -2.041555    2.258565
 H     -3.207034    2.561050   -2.447593
 H     -2.155233    2.419198   -1.067173
 H     -2.098453    1.213596   -2.340701
 H      1.005282    0.225532    3.736275
 H      0.944718   -1.531947    3.725040
 H      2.155330   -0.691954    4.665739
