81

 Si     0.198526   -1.745068    0.584441
 O     -1.363229   -1.444464    0.304127
 C     -2.474982   -1.681649   -0.477501
 C     -2.354124   -0.981030   -1.800576
 H     -3.310101   -1.227704    0.063109
 C     -1.121162   -0.805889   -2.398975
 C     -3.489724   -0.492462   -2.433244
 C     -1.009764   -0.129596   -3.601789
 H     -0.244779   -1.203274   -1.925626
 C     -3.388132    0.174021   -3.642819
 H     -4.462827   -0.633013   -1.977472
 C     -2.144096    0.365413   -4.227992
 H     -0.032133    0.000893   -4.056127
 H     -4.283878    0.549332   -4.128921
 H     -2.061315    0.891692   -5.174759
 C     -2.791454   -3.152207   -0.626352
 C     -2.876455   -3.806479    0.687995
 H     -3.753484   -3.257532   -1.142354
 H     -2.029700   -3.649184   -1.223092
 C     -2.935231   -4.317026    1.772785
 H     -2.992432   -4.788858    2.724525
 Cl     0.796432   -2.624739    2.293585
 Cl     0.402100   -3.380638   -0.641545
 O      1.287367   -0.955409   -0.464661
 O      0.215107   -0.218642    1.473197
 C      1.521946    1.255534   -0.053013
 C      0.069990    1.318426   -0.137378
 C     -1.796871    0.881650    1.280265
 C      3.433829   -0.173888   -0.166400
 C      4.237284    0.924235    0.290220
 C      2.269350    2.347623    0.185474
 C      3.658364    2.201087    0.411298
 C     -0.642437    2.066985   -0.990335
 C     -2.047033    2.152313   -0.807556
 C     -2.627783    1.570603    0.332385
 H      1.794780    3.314764    0.271665
 C      4.436401    3.310027    0.806971
 H     -0.154211    2.583339   -1.804773
 C     -2.847383    2.830683   -1.747040
 C     -4.033783    1.625172    0.456255
 C     -2.241441    0.490298    2.684083
 N      2.120898    0.026641   -0.175206
 N     -0.553769    0.683100    0.906054
 C      3.945108   -1.501310   -0.725757
 C      5.588628    0.783942    0.688884
 C      5.748600    3.146703    1.138338
 C      6.320383    1.856542    1.104281
 H      6.044018   -0.187769    0.710101
 H      3.964679    4.284327    0.861552
 H      6.346553    3.998131    1.452659
 H      7.350514    1.713272    1.418614
 C     -4.200360    2.887750   -1.587574
 C     -4.799732    2.257875   -0.478490
 H     -4.519728    1.140527    1.284409
 H     -2.369155    3.289890   -2.603555
 H     -4.817619    3.403296   -2.318232
 H     -5.880196    2.275685   -0.364551
 C      5.450208   -1.551032   -1.016766
 C      3.621229   -2.608032    0.267906
 C      3.278662   -1.716574   -2.090754
 C     -3.176176   -0.712948    2.658444
 C     -1.078020    0.157248    3.614278
 C     -2.907490    1.731752    3.308406
 H      5.627936   -2.395979   -1.678148
 H      5.818188   -0.665811   -1.528134
 H      6.055869   -1.737747   -0.136909
 H      3.994468   -3.557311   -0.106183
 H      4.094849   -2.421885    1.229721
 H      2.562897   -2.714013    0.421233
 H     -2.676737   -1.575320    2.239737
 H     -3.472249   -0.955083    3.677041
 H     -4.086679   -0.542555    2.095531
 H     -3.202901    1.499983    4.329057
 H     -2.208626    2.565075    3.352545
 H     -3.794619    2.073898    2.793192
 H      3.602637   -2.670037   -2.497958
 H      2.205978   -1.741855   -2.047533
 H      3.585673   -0.941784   -2.791068
 H     -0.628357   -0.796204    3.399087
 H     -0.305060    0.915388    3.592460
 H     -1.462032    0.116883    4.631208
