81

 Si    -0.451859    0.930965    1.633495
 O      0.933421    1.187585    0.789738
 C      1.812294    2.212766    0.535838
 C      2.829520    1.698594   -0.438940
 H      2.300401    2.526067    1.463781
 C      2.376858    1.134856   -1.622557
 C      4.191553    1.795201   -0.206058
 C      3.271812    0.693149   -2.578620
 H      1.313162    1.059885   -1.789541
 C      5.095893    1.343855   -1.158738
 H      4.554410    2.238395    0.715223
 C      4.637885    0.799633   -2.347815
 H      2.907417    0.275281   -3.510898
 H      6.162853    1.429737   -0.972487
 H      5.345361    0.461453   -3.099089
 C      1.083771    3.400190   -0.059390
 C      0.045919    3.935292    0.831783
 H      1.796955    4.200779   -0.286336
 H      0.611705    3.093137   -0.991203
 C     -0.813475    4.363054    1.552541
 H     -1.570035    4.731637    2.203060
 Cl     0.341335    1.664057    3.375797
 Cl    -2.372563    1.164119    2.300546
 O     -1.049888    0.792728   -0.023869
 O     -0.312671   -0.744912    1.788530
 C     -1.654619   -1.332919   -0.242399
 C     -0.210588   -1.527627   -0.302256
 C      1.751048   -1.514208    1.061315
 C     -3.288882    0.382164   -0.524106
 C     -4.307067   -0.634762   -0.455513
 C     -2.560597   -2.320097   -0.248631
 C     -3.939114   -1.981349   -0.288418
 C      0.444694   -1.995426   -1.374147
 C      1.854510   -2.134274   -1.310793
 C      2.516550   -1.846575   -0.105763
 H     -2.240825   -3.352510   -0.220547
 C     -4.921679   -2.988281   -0.195091
 H     -0.096406   -2.237253   -2.278429
 C      2.584204   -2.547568   -2.443893
 C      3.929543   -1.880539   -0.107764
 C      2.318479   -1.568249    2.476738
 N     -2.057397   -0.017463   -0.273541
 N      0.474862   -1.263306    0.856591
 C     -3.566402    1.806409   -0.995725
 C     -5.689204   -0.336743   -0.497650
 C     -6.246510   -2.666541   -0.239160
 C     -6.630473   -1.317744   -0.386044
 H     -6.019952    0.680083   -0.601676
 H     -4.602809   -4.017768   -0.079170
 H     -7.003614   -3.442065   -0.159506
 H     -7.684318   -1.054590   -0.410616
 C      3.944485   -2.619499   -2.398171
 C      4.624012   -2.252688   -1.218872
 H      4.475722   -1.584689    0.769344
 H      2.043924   -2.794853   -3.350282
 H      4.506876   -2.935133   -3.272872
 H      5.709670   -2.263479   -1.194580
 C     -4.270543    1.677162   -2.360026
 C     -4.404597    2.593948    0.011689
 C     -2.304637    2.616360   -1.266674
 C      3.173198   -0.330647    2.723751
 C      1.249637   -1.659848    3.564627
 C      3.115725   -2.878418    2.617330
 H     -4.448583    2.670269   -2.766124
 H     -3.643016    1.143056   -3.071367
 H     -5.227343    1.173208   -2.322376
 H     -4.637669    3.570626   -0.407651
 H     -5.343769    2.121465    0.271102
 H     -3.849739    2.744028    0.931204
 H      2.566986    0.560313    2.635096
 H      3.579212   -0.365944    3.732502
 H      4.008015   -0.244611    2.038518
 H      3.496723   -2.949280    3.633407
 H      2.473186   -3.740528    2.449151
 H      3.967301   -2.969980    1.958882
 H     -2.597171    3.542051   -1.756970
 H     -1.785087    2.883210   -0.364270
 H     -1.618582    2.102776   -1.927186
 H      0.737151   -0.729493    3.731395
 H      0.519908   -2.432463    3.354646
 H      1.743536   -1.925220    4.496181
