81

 Si    -0.198006   -0.871987   -0.692468
 O     -1.691452   -1.476403   -0.372210
 C     -2.308720   -2.718728   -0.323923
 C     -3.445863   -2.581410    0.644205
 H     -1.603315   -3.452705    0.071615
 C     -4.676306   -2.073945    0.257240
 C     -3.222405   -2.864948    1.984870
 C     -5.672469   -1.849272    1.194493
 H     -4.866810   -1.856637   -0.784747
 C     -4.213045   -2.642917    2.928321
 H     -2.263301   -3.262964    2.295273
 C     -5.441743   -2.131045    2.534100
 H     -6.634914   -1.458784    0.876159
 H     -4.026546   -2.873824    3.973258
 H     -6.222876   -1.959958    3.269592
 C     -2.720777   -3.152169   -1.712700
 C     -1.567343   -3.548020   -2.538975
 H     -3.401823   -4.009028   -1.652436
 H     -3.241540   -2.332831   -2.207240
 C     -0.631403   -3.890663   -3.208866
 H      0.186025   -4.199037   -3.814215
 Cl    -0.732465   -0.190234   -2.531839
 Cl     0.831688   -2.507579   -0.092746
 O     -0.379173    0.195077    0.619652
 O      1.296771    0.000075   -1.053717
 C      0.969706    1.974438    0.371982
 C      2.006222    1.034816    0.781089
 C      3.353402   -0.676092   -0.201427
 C     -1.393366    2.197478    0.108040
 C     -1.168329    3.483244   -0.486201
 C      1.204394    3.245423    0.006758
 C      0.130142    4.022648   -0.498052
 C      2.761011    1.128416    1.883075
 C      3.849804    0.229034    2.038358
 C      4.182355   -0.635405    0.978896
 H      2.209788    3.641767    0.037364
 C      0.363886    5.301708   -1.046337
 H      2.553832    1.886402    2.625832
 C      4.620910    0.252282    3.218525
 C      5.322749   -1.455557    1.147176
 C      3.770800   -1.391340   -1.486838
 N     -0.310043    1.480585    0.345118
 N      2.261458    0.062297   -0.159152
 C     -2.761439    1.682146    0.537640
 C     -2.195273    4.212338   -1.131556
 C     -0.655216    5.998554   -1.625712
 C     -1.946323    5.430147   -1.691098
 H     -3.177771    3.783736   -1.226913
 H      1.368853    5.706784   -1.016886
 H     -0.472438    6.978316   -2.059268
 H     -2.746122    5.963539   -2.197327
 C      5.702533   -0.567495    3.354488
 C      6.056050   -1.430203    2.297267
 H      5.630371   -2.122782    0.364266
 H      4.335281    0.932452    4.012694
 H      6.293524   -0.552656    4.266335
 H      6.921205   -2.080132    2.394990
 C     -3.537469    2.842221    1.186956
 C     -3.486214    1.104489   -0.671643
 C     -2.671928    0.620159    1.630084
 C      3.896700   -2.905580   -1.300615
 C      2.836220   -1.177629   -2.673669
 C      5.110422   -0.745793   -1.890459
 H     -4.473480    2.455513    1.582247
 H     -2.982142    3.264885    2.021922
 H     -3.796832    3.650480    0.518369
 H     -4.491059    0.809449   -0.382648
 H     -3.574949    1.815650   -1.487812
 H     -2.964815    0.228177   -1.030801
 H      2.920304   -3.351839   -1.151922
 H      4.328156   -3.335233   -2.202233
 H      4.519989   -3.211023   -0.471579
 H      5.456301   -1.186499   -2.822668
 H      4.988980    0.322259   -2.062589
 H      5.901391   -0.874575   -1.162151
 H     -3.664553    0.474890    2.043350
 H     -2.339040   -0.325818    1.257408
 H     -2.027617    0.931837    2.444389
 H      1.877829   -1.650456   -2.537310
 H      2.676016   -0.132140   -2.896912
 H      3.303644   -1.630374   -3.545530
