81

 Si     0.014063   -1.460459    0.152834
 O     -1.454585   -0.887280   -0.236784
 C     -2.345880   -1.230117   -1.251019
 C     -3.571239   -1.831822   -0.626877
 H     -1.880536   -1.985848   -1.886352
 C     -3.378852   -2.723927    0.420549
 C     -4.863861   -1.542110   -1.035910
 C     -4.456181   -3.307285    1.061437
 H     -2.373836   -2.965877    0.727874
 C     -5.949828   -2.127849   -0.399511
 H     -5.041879   -0.856610   -1.854028
 C     -5.750174   -3.006926    0.653320
 H     -4.285361   -4.002158    1.878506
 H     -6.957143   -1.891523   -0.730843
 H     -6.600445   -3.462867    1.152631
 C     -2.567941   -0.002981   -2.098382
 C     -1.303139    0.424139   -2.714787
 H     -3.280383   -0.215538   -2.902329
 H     -2.974262    0.808227   -1.498688
 C     -0.265539    0.728850   -3.234527
 H      0.642031    1.002326   -3.712931
 Cl     0.700086   -2.351731    1.840362
 Cl    -0.103974   -3.211915   -0.920417
 O      1.206435   -0.814793   -0.868886
 O      0.164532    0.009718    1.109925
 C      2.150714    0.975607    0.129718
 C      0.892711    1.628236   -0.203730
 C     -1.326894    1.729174    0.665112
 C      3.403647   -1.029190   -0.186167
 C      4.369003   -0.529020    0.749307
 C      3.130162    1.561896    0.836844
 C      4.251282    0.786159    1.229636
 C      0.732515    2.690966   -1.001002
 C     -0.550683    3.293791   -1.073915
 C     -1.568341    2.850353   -0.210189
 H      3.025924    2.589281    1.156233
 C      5.212738    1.306805    2.120825
 H      1.566219    3.083511   -1.566683
 C     -0.781356    4.354901   -1.973002
 C     -2.809811    3.525495   -0.270757
 C     -2.264083    1.343735    1.804806
 N      2.290018   -0.324084   -0.291461
 N     -0.168100    1.130144    0.514636
 C      3.653688   -2.223641   -1.101171
 C      5.408690   -1.335349    1.270096
 C      6.227983    0.516910    2.574864
 C      6.307324   -0.831187    2.162680
 H      5.467560   -2.375321    0.998874
 H      5.115727    2.334049    2.452830
 H      6.961579    0.914141    3.271558
 H      7.085742   -1.474044    2.564199
 C     -1.998907    4.966647   -2.023319
 C     -3.024016    4.543880   -1.152790
 H     -3.613210    3.241844    0.382771
 H      0.025987    4.669028   -2.624324
 H     -2.178163    5.779470   -2.722027
 H     -3.993046    5.034781   -1.178515
 C      5.109933   -2.157665   -1.597180
 C      3.366795   -3.521345   -0.352381
 C      2.815695   -2.157212   -2.378566
 C     -3.621960    0.877619    1.291930
 C     -1.752788    0.230673    2.709184
 C     -2.371120    2.597473    2.693831
 H      5.264817   -2.948304   -2.327402
 H      5.313315   -1.211811   -2.095381
 H      5.860013   -2.296293   -0.831997
 H      3.567885   -4.368051   -1.005102
 H      3.983686   -3.635187    0.534345
 H      2.326800   -3.567905   -0.052730
 H     -3.512584   -0.057291    0.769943
 H     -4.283657    0.711430    2.138263
 H     -4.125326    1.568783    0.631506
 H     -3.009867    2.379696    3.546806
 H     -1.394058    2.879849    3.081850
 H     -2.789314    3.460328    2.190289
 H      3.207960   -2.887823   -3.081352
 H      1.779687   -2.392731   -2.217590
 H      2.884394   -1.183695   -2.852339
 H     -1.704451   -0.716066    2.202170
 H     -0.784902    0.446686    3.137942
 H     -2.455666    0.126229    3.532859
