81

 Si     0.362092   -1.810502    0.434239
 O     -1.239531   -1.642477    0.206396
 C     -2.066971   -2.157319   -0.793360
 C     -2.296028   -1.075257   -1.809719
 H     -1.534669   -2.965841   -1.293381
 C     -3.539294   -0.537283   -2.095831
 C     -1.189587   -0.627395   -2.517668
 C     -3.678091    0.423088   -3.087112
 H     -4.417711   -0.878832   -1.565821
 C     -1.317397    0.340793   -3.495592
 H     -0.224696   -1.054834   -2.304313
 C     -2.568718    0.866692   -3.788291
 H     -4.662060    0.821007   -3.313979
 H     -0.441665    0.672546   -4.045340
 H     -2.678791    1.615952   -4.566856
 C     -3.305811   -2.757069   -0.183677
 C     -2.947461   -3.786124    0.803612
 H     -3.913246   -3.218225   -0.971902
 H     -3.914485   -1.995271    0.299662
 C     -2.624852   -4.611206    1.613311
 H     -2.355214   -5.354454    2.325642
 Cl     1.298276   -2.547920    2.068513
 Cl     0.653604   -3.486858   -0.725396
 O      1.236994   -0.893571   -0.704230
 O      0.267655   -0.316148    1.365459
 C      1.502290    1.259685   -0.065114
 C      0.048306    1.331386   -0.119087
 C     -1.776196    0.741543    1.297326
 C      3.395112   -0.154055   -0.397892
 C      4.202171    0.835204    0.254657
 C      2.263914    2.297707    0.323798
 C      3.646885    2.090706    0.554204
 C     -0.684519    2.179834   -0.853832
 C     -2.082240    2.250175   -0.616649
 C     -2.634917    1.523633    0.451574
 H      1.803690    3.251347    0.540727
 C      4.440707    3.099222    1.140823
 H     -0.215990    2.794868   -1.609338
 C     -2.903156    3.066835   -1.419076
 C     -4.035334    1.572209    0.629734
 C     -2.164925    0.262328    2.692605
 N      2.087700    0.051967   -0.357091
 N     -0.547488    0.581259    0.864167
 C      3.950700   -1.337949   -1.186967
 C      5.525807    0.577843    0.682840
 C      5.732706    2.838592    1.491567
 C      6.267982    1.547366    1.289315
 H      5.937010   -0.411008    0.582766
 H      3.997047    4.070044    1.329479
 H      6.341213    3.610213    1.955944
 H      7.275141    1.321220    1.628407
 C     -4.248038    3.119823   -1.202294
 C     -4.821536    2.341248   -0.176778
 H     -4.498383    0.981528    1.400379
 H     -2.446488    3.639641   -2.216926
 H     -4.880079    3.745643   -1.826458
 H     -5.897232    2.355344   -0.024026
 C      5.335436   -1.008542   -1.772109
 C      4.028096   -2.553183   -0.270505
 C      3.078990   -1.622366   -2.413731
 C     -3.117466   -0.922061    2.631314
 C     -0.972893   -0.150684    3.551125
 C     -2.785162    1.470597    3.420029
 H      5.563815   -1.738335   -2.544732
 H      5.359435   -0.027469   -2.240127
 H      6.149192   -1.069651   -1.063013
 H      4.447554   -3.396074   -0.814983
 H      4.663516   -2.365793    0.592711
 H      3.046085   -2.838872    0.081081
 H     -2.639371   -1.760990    2.147828
 H     -3.383753   -1.221558    3.642692
 H     -4.042566   -0.707974    2.109740
 H     -3.028174    1.183537    4.440479
 H     -2.078504    2.296644    3.473655
 H     -3.695888    1.843385    2.971103
 H      3.588092   -2.350316   -3.039237
 H      2.119282   -2.036675   -2.169415
 H      2.936595   -0.725921   -3.011199
 H     -0.540516   -1.088269    3.247749
 H     -0.192824    0.599729    3.562111
 H     -1.323179   -0.268049    4.574283
