81

 Si    -0.033696   -1.328810   -0.317630
 O      1.446821   -0.743378   -0.018187
 C      2.539975   -0.884653    0.814524
 C      3.494158   -1.924748    0.294802
 H      3.043679    0.089932    0.790284
 C      3.138834   -2.735935   -0.768565
 C      4.760043   -2.057268    0.853746
 C      4.025591   -3.675952   -1.267862
 H      2.162641   -2.639031   -1.211550
 C      5.651248   -2.996419    0.360321
 H      5.057327   -1.420088    1.678961
 C      5.285334   -3.811011   -0.702856
 H      3.726871   -4.304924   -2.101265
 H      6.636516   -3.091220    0.808149
 H      5.982092   -4.548849   -1.090234
 C      2.146426   -1.149371    2.250843
 C      1.201481   -0.158456    2.786323
 H      3.048614   -1.129399    2.871840
 H      1.696083   -2.134415    2.342308
 C      0.434481    0.624332    3.275691
 H     -0.235216    1.301844    3.742692
 Cl    -0.828052   -2.176057   -1.978702
 Cl     0.180965   -3.109314    0.681053
 O     -1.113322   -0.721901    0.837272
 O     -0.275484    0.170544   -1.205231
 C     -2.056132    1.189169    0.084932
 C     -0.724496    1.742828    0.287023
 C      1.374732    1.753235   -0.848425
 C     -3.374289   -0.774620    0.400413
 C     -4.414898   -0.155034   -0.367534
 C     -3.082158    1.878498   -0.440645
 C     -4.285874    1.192049   -0.746137
 C     -0.377684    2.721834    1.131536
 C      0.959844    3.198469    1.100196
 C      1.831382    2.739238    0.096443
 H     -2.958732    2.922349   -0.693273
 C     -5.318454    1.830240   -1.464975
 H     -1.099857    3.130345    1.824587
 C      1.397792    4.143127    2.051136
 C      3.149686    3.251403    0.089954
 C      2.110366    1.425161   -2.143054
 N     -2.218628   -0.133217    0.420423
 N      0.192132    1.238631   -0.601162
 C     -3.569463   -2.032299    1.241775
 C     -5.545358   -0.869808   -0.829282
 C     -6.418817    1.126251   -1.857981
 C     -6.515806   -0.250507   -1.559582
 H     -5.619976   -1.928498   -0.648900
 H     -5.208792    2.878549   -1.717810
 H     -7.208076    1.614229   -2.423919
 H     -7.365578   -0.822920   -1.921072
 C      2.679343    4.608653    2.024141
 C      3.565956    4.149985    1.028018
 H      3.851004    2.926635   -0.656543
 H      0.699153    4.483502    2.806604
 H      3.017904    5.329814    2.763312
 H      4.588700    4.516051    1.003511
 C     -4.968183   -1.988561    1.882727
 C     -3.384343   -3.267466    0.366174
 C     -2.609469   -2.079435    2.432269
 C      3.440150    0.720082   -1.897255
 C      1.325002    0.543558   -3.105632
 C      2.296067    2.773069   -2.867762
 H     -5.060572   -2.824888    2.571378
 H     -5.108985   -1.076691    2.459499
 H     -5.792219   -2.073395    1.189270
 H     -3.547573   -4.162966    0.961786
 H     -4.082395   -3.292488   -0.466471
 H     -2.376983   -3.307800   -0.030646
 H      4.103395    1.232370   -1.213611
 H      3.270711   -0.272408   -1.511341
 H      3.969362    0.625542   -2.842880
 H      2.778642    2.601183   -3.827128
 H      1.334098    3.242027   -3.066804
 H      2.905378    3.484992   -2.325448
 H     -2.955786   -2.847181    3.119293
 H     -1.602541   -2.331123    2.154770
 H     -2.597443   -1.140640    2.975506
 H      1.216803   -0.465687   -2.748864
 H      0.342449    0.937264   -3.326579
 H      1.876096    0.501848   -4.042690
