81

 Si    -0.256357   -0.790855   -0.765922
 O     -1.797307   -1.300276   -0.513956
 C     -2.510825   -2.489115   -0.577339
 C     -3.650184   -2.342973    0.386821
 H     -1.871796   -3.307188   -0.238009
 C     -4.828910   -1.705726    0.031512
 C     -3.474251   -2.756627    1.700325
 C     -5.820340   -1.480984    0.973581
 H     -4.982530   -1.385211   -0.989760
 C     -4.460659   -2.535321    2.648528
 H     -2.556031   -3.256552    1.986001
 C     -5.636964   -1.893418    2.286498
 H     -6.742503   -0.987715    0.679581
 H     -4.311738   -2.868417    3.671703
 H     -6.414849   -1.722080    3.025375
 C     -2.931413   -2.771174   -2.001900
 C     -1.797733   -3.183020   -2.847531
 H     -3.675776   -3.575738   -2.021413
 H     -3.381511   -1.876379   -2.430680
 C     -0.878573   -3.537635   -3.534210
 H     -0.076351   -3.854675   -4.155231
 Cl    -0.705477    0.087681   -2.543620
 Cl     0.632322   -2.548125   -0.299242
 O     -0.374088    0.172725    0.630370
 O      1.309121   -0.014358   -1.037185
 C      1.116841    1.851423    0.550757
 C      2.068474    0.799584    0.886627
 C      3.291135   -0.924391   -0.227093
 C     -1.216123    2.286734    0.283376
 C     -0.879241    3.596132   -0.195195
 C      1.458161    3.125981    0.300005
 C      0.458144    4.027682   -0.147132
 C      2.809348    0.736696    2.000198
 C      3.820731   -0.257284    2.087336
 C      4.101586   -1.051209    0.959954
 H      2.491182    3.435871    0.375359
 C      0.802584    5.325503   -0.580904
 H      2.650518    1.442331    2.803967
 C      4.571673   -0.397309    3.272418
 C      5.171465   -1.970728    1.066890
 C      3.671220   -1.558962   -1.565075
 N     -0.197591    1.466889    0.467988
 N      2.261105   -0.106345   -0.131795
 C     -2.628011    1.848745    0.653161
 C     -1.833493    4.458093   -0.785957
 C     -0.147555    6.149164   -1.108831
 C     -1.478665    5.695013   -1.235748
 H     -2.845174    4.119824   -0.928051
 H      1.835985    5.644033   -0.506506
 H      0.120519    7.143885   -1.455251
 H     -2.224604    6.332565   -1.702188
 C      5.582958   -1.309539    3.346931
 C      5.885400   -2.103031    2.221807
 H      5.438911   -2.590019    0.231514
 H      4.327774    0.232889    4.119946
 H      6.157487   -1.420964    4.262615
 H      6.695224   -2.825715    2.270754
 C     -3.320170    3.008071    1.392371
 C     -3.376127    1.436009   -0.608355
 C     -2.641189    0.693621    1.650765
 C      3.673921   -3.088960   -1.507581
 C      2.775472   -1.171847   -2.737902
 C      5.063644   -0.990525   -1.899728
 H     -4.290880    2.666263    1.742745
 H     -2.747370    3.311003    2.266667
 H     -3.501717    3.889187    0.793847
 H     -4.405963    1.199876   -0.355496
 H     -3.393695    2.218546   -1.361398
 H     -2.920301    0.553822   -1.035843
 H      2.661725   -3.465938   -1.417918
 H      4.095054   -3.474092   -2.433836
 H      4.247878   -3.511432   -0.694473
 H      5.388082   -1.376065   -2.863562
 H      5.029633    0.094621   -1.979969
 H      5.830803   -1.244088   -1.178737
 H     -3.647996    0.596009    2.043198
 H     -2.380982   -0.241285    1.200256
 H     -1.985476    0.880380    2.493582
 H      1.780225   -1.574810   -2.650469
 H      2.703339   -0.101876   -2.873807
 H      3.218843   -1.586873   -3.640530
