81

 Si    -0.773658    1.685591    0.843495
 O      0.916989    1.406659   -0.010141
 C      1.872066    2.040017   -0.409888
 C      2.866421    1.456635   -1.307852
 H      2.018912    3.077997   -0.096282
 C      2.487464    0.386976   -2.114493
 C      4.159115    1.967798   -1.371378
 C      3.400524   -0.179298   -2.977723
 H      1.466683    0.038457   -2.065777
 C      5.084937    1.377693   -2.216831
 H      4.438929    2.816767   -0.754879
 C      4.703813    0.309648   -3.017485
 H      3.107265   -0.997473   -3.626046
 H      6.101029    1.758629   -2.261976
 H      5.427726   -0.141860   -3.691449
 C      2.053066    4.242460    2.266288
 C      1.036584    3.418657    2.278799
 H      3.062453    3.902063    2.483116
 H      1.899037    5.301132    2.071083
 C      0.030545    2.587373    2.281622
 H     -0.467389    2.470000    3.241420
 Cl    -2.657681    1.567070    1.705453
 Cl    -1.024217    3.408824   -0.329553
 O     -1.178851    0.713199   -0.586444
 O     -0.380161    0.086461    1.585950
 C     -1.709757   -1.361731    0.048604
 C     -0.264545   -1.526422    0.055827
 C      1.658460   -0.968692    1.329798
 C     -3.376794    0.061016   -0.871289
 C     -4.373098   -0.809325   -0.310364
 C     -2.594846   -2.289564    0.439500
 C     -3.979793   -1.987994    0.343801
 C      0.405669   -2.381700   -0.731941
 C      1.818063   -2.447164   -0.625057
 C      2.451113   -1.717038    0.392020
 H     -2.254722   -3.230096    0.849796
 C     -4.946724   -2.849817    0.899817
 H     -0.127827   -2.979264   -1.458309
 C      2.578190   -3.214985   -1.533122
 C      3.865344   -1.703307    0.409838
 C      2.187671   -0.519356    2.686918
 N     -2.135664   -0.175133   -0.492519
 N      0.394548   -0.780798    1.003938
 C     -3.669610    1.111899   -1.932605
 C     -5.746913   -0.478667   -0.311538
 C     -6.269805   -2.517836    0.859100
 C     -6.669056   -1.303391    0.263431
 H     -6.072618    0.456665   -0.731827
 H     -4.617793   -3.766861    1.374867
 H     -7.013948   -3.175968    1.299726
 H     -7.717548   -1.018935    0.265636
 C      3.939456   -3.207489   -1.470103
 C      4.588752   -2.417607   -0.497680
 H      4.388557   -1.097211    1.127763
 H      2.058522   -3.793023   -2.288797
 H      4.525522   -3.790242   -2.175601
 H      5.674056   -2.378090   -0.470232
 C     -4.641411    0.490911   -2.953869
 C     -4.243866    2.376084   -1.303144
 C     -2.424838    1.460205   -2.745671
 C      3.057285    0.723186    2.540874
 C      1.073473   -0.236766    3.691979
 C      2.971952   -1.697224    3.295937
 H     -4.776132    1.188404   -3.777284
 H     -4.238936   -0.430096   -3.371260
 H     -5.626920    0.274639   -2.565977
 H     -4.485511    3.091335   -2.086890
 H     -5.151912    2.187689   -0.739394
 H     -3.519887    2.830511   -0.638282
 H      2.457062    1.565452    2.229673
 H      3.500028    0.975326    3.501889
 H      3.870080    0.598883    1.833414
 H      3.279557   -1.432507    4.304956
 H      2.345945   -2.583929    3.370123
 H      3.869145   -1.970751    2.758170
 H     -2.731568    2.050597   -3.605700
 H     -1.715111    2.040662   -2.186024
 H     -1.932409    0.570259   -3.123546
 H      0.518146    0.653862    3.466741
 H      0.376787   -1.064113    3.761640
 H      1.524578   -0.105968    4.673220
