61

 Si     0.077990   -1.305165    0.968703
 O      1.769206   -1.686212    0.318736
 C      2.230322   -2.044992   -0.751487
 C      3.654397   -2.238728   -0.977893
 H      1.560335   -2.232567   -1.595558
 C      4.551172   -2.029302    0.070497
 C      4.114083   -2.634368   -2.232858
 C      5.902090   -2.209006   -0.136603
 H      4.163839   -1.720592    1.032959
 C      5.471920   -2.814827   -2.439889
 H      3.408217   -2.798541   -3.041318
 C      6.360088   -2.602424   -1.393789
 H      6.605786   -2.047437    0.674367
 H      5.838855   -3.122219   -3.414612
 H      7.425901   -2.745081   -1.556485
 C      3.421956    0.566978    2.373908
 C      2.154556    0.299585    2.197143
 H      3.919720    1.341284    1.798869
 H      3.994490    0.039091    3.132187
 C      0.887828    0.040664    2.022518
 H      0.218774    0.611554    2.661689
 Cl    -0.771800   -2.681032   -0.411751
 Cl     0.269179   -2.751495    2.458818
 O     -1.477132   -0.663664    1.520990
 O     -0.081101   -0.177262   -0.438835
 C     -2.569191    0.472988   -0.118352
 C     -1.536807    1.487816    0.073223
 C      0.772019    1.927174   -0.199932
 C     -3.418833   -1.571058    0.729469
 C     -4.497860   -1.511293   -0.194806
 C     -3.574997    0.577670   -1.013352
 C     -4.567725   -0.433798   -1.089840
 C     -1.787548    2.769788    0.419884
 C     -0.727456    3.708703    0.499986
 C      0.567023    3.287320    0.161402
 H     -3.616774    1.436725   -1.669280
 C     -5.627267   -0.381417   -2.022319
 H     -2.804266    3.072494    0.632322
 C     -0.936953    5.052462    0.884808
 C      1.640443    4.205090    0.201818
 C      2.047056    1.438679   -0.627911
 N     -2.499652   -0.620675    0.705450
 N     -0.248408    1.088145   -0.181604
 C     -3.298924   -2.603162    1.707183
 C     -5.481548   -2.523883   -0.229249
 C     -6.566902   -1.370991   -2.045686
 C     -6.494870   -2.455492   -1.138138
 H     -5.408874   -3.345979    0.470521
 H     -5.680792    0.451812   -2.713797
 H     -7.380994   -1.329069   -2.764901
 H     -7.252142   -3.233918   -1.169813
 C      0.112016    5.923539    0.925226
 C      1.417140    5.495448    0.578312
 H      2.631823    3.864360   -0.064984
 H     -1.938396    5.375599    1.145937
 H     -0.050415    6.956206    1.223262
 H      2.241238    6.202726    0.613983
 C     -3.209476   -3.456587    2.543521
 H     -3.122632   -4.217021    3.285927
 C      3.121619    1.088724   -1.025732
 H      4.078651    0.776634   -1.372842
