61

 Si     0.575907   -2.102226    0.768006
 O     -0.978899   -1.718260    0.988983
 C     -2.192541   -2.146253    0.473624
 C     -2.579068   -1.155889   -0.589826
 H     -2.057008   -3.124549    0.006305
 C     -3.753108   -0.422481   -0.574377
 C     -1.679552   -0.966152   -1.629821
 C     -4.027801    0.485751   -1.587037
 H     -4.473495   -0.560167    0.220486
 C     -1.940991   -0.055756   -2.635495
 H     -0.772200   -1.546370   -1.649127
 C     -3.122158    0.675053   -2.617548
 H     -4.957951    1.045010   -1.567648
 H     -1.228011    0.074108   -3.444083
 H     -3.338416    1.384526   -3.410872
 C     -3.165261   -2.293747    1.614275
 C     -2.619216   -3.192315    2.641191
 H     -4.119219   -2.697188    1.254460
 H     -3.359615   -1.324423    2.069592
 C     -2.143076   -3.916796    3.471320
 H     -1.740068   -4.570544    4.208011
 Cl     1.858329   -2.783049    2.167200
 Cl     0.301007   -3.867740   -0.244545
 O      1.219173   -1.403330   -0.651345
 O      0.894215   -0.487805    1.467984
 C      1.948436    0.765879   -0.476997
 C      0.571991    1.095335   -0.131480
 C     -1.000421    0.771759    1.610537
 C      3.456983   -1.032173   -0.840331
 C      4.540611   -0.118365   -0.923878
 C      2.944891    1.675627   -0.564063
 C      4.280031    1.255518   -0.795792
 C     -0.200687    2.026608   -0.729289
 C     -1.460729    2.361285   -0.171448
 C     -1.853952    1.745152    1.026224
 H      2.718097    2.724197   -0.426034
 C      5.353168    2.169546   -0.881602
 H      0.153746    2.522245   -1.623140
 C     -2.311223    3.321165   -0.760603
 C     -3.084382    2.087332    1.626585
 C     -1.270306    0.145405    2.860805
 N      2.236995   -0.564384   -0.624982
 N      0.121363    0.458404    0.993929
 C      3.617679   -2.441253   -0.996867
 C      5.861924   -0.571721   -1.138137
 C      6.623225    1.714257   -1.088123
 C      6.882358    0.327546   -1.217828
 H      6.041417   -1.634623   -1.234355
 H      5.152812    3.230216   -0.780813
 H      7.447723    2.419925   -1.154226
 H      7.900237   -0.015727   -1.381260
 C     -3.499016    3.637549   -0.169748
 C     -3.891782    3.013741    1.038388
 H     -3.365665    1.604748    2.553074
 H     -2.006278    3.798581   -1.684469
 H     -4.151730    4.377282   -0.626338
 H     -4.840046    3.280094    1.497251
 C      3.742186   -3.627023   -1.121430
 H      3.843682   -4.684448   -1.223259
 C     -1.460357   -0.360230    3.929983
 H     -1.643957   -0.808858    4.880002
