61

 Si     0.546728   -1.979555    1.249781
 O     -0.521341   -2.443206    0.133654
 C     -1.890837   -2.531281    0.044510
 C     -2.421469   -1.299797   -0.643191
 H     -2.324479   -2.609739    1.044791
 C     -1.580552   -0.562411   -1.457326
 C     -3.750587   -0.920934   -0.515323
 C     -2.054523    0.545796   -2.138859
 H     -0.550971   -0.863429   -1.543684
 C     -4.232056    0.182988   -1.200626
 H     -4.415511   -1.495226    0.120429
 C     -3.384746    0.918983   -2.016305
 H     -1.384725    1.112411   -2.777957
 H     -5.275294    0.467188   -1.098756
 H     -3.762636    1.780891   -2.557053
 C     -2.233155   -3.776618   -0.743953
 C     -1.753191   -4.992300   -0.068652
 H     -3.317045   -3.854582   -0.889285
 H     -1.764418   -3.705155   -1.727476
 C     -1.356859   -5.973590    0.497977
 H     -1.016127   -6.850869    0.994036
 Cl    -0.293887   -2.904427    2.882715
 Cl     2.388436   -2.774682    1.503450
 O      1.139752   -1.015010   -0.175347
 O      0.346476   -0.437541    1.965347
 C      1.977138    1.000397    0.441271
 C      0.573637    1.374490    0.568855
 C     -1.519176    0.795482    1.520341
 C      3.362219   -0.640778   -0.554732
 C      4.501533    0.185066   -0.342628
 C      3.024528    1.823550    0.668723
 C      4.337118    1.414703    0.314629
 C      0.044454    2.465620   -0.029075
 C     -1.328515    2.777096    0.127849
 C     -2.117348    1.935291    0.925680
 H      2.851569    2.798427    1.104977
 C      5.469905    2.222058    0.558492
 H      0.681042    3.098420   -0.632304
 C     -1.920622    3.905879   -0.477711
 C     -3.482123    2.232526    1.131782
 C     -2.248478   -0.076928    2.379000
 N      2.188813   -0.245850   -0.091947
 N     -0.233048    0.551304    1.308245
 C      3.422821   -1.865000   -1.290836
 C      5.786560   -0.227573   -0.756956
 C      6.706237    1.803960    0.158642
 C      6.867315    0.565510   -0.508512
 H      5.893134   -1.178385   -1.262391
 H      5.341988    3.171498    1.066165
 H      7.577348    2.425562    0.349820
 H      7.858565    0.248747   -0.821135
 C     -3.242684    4.174015   -0.272797
 C     -4.032568    3.331102    0.545459
 H     -4.072335    1.575937    1.755707
 H     -1.311532    4.552955   -1.098487
 H     -3.696858    5.046139   -0.736842
 H     -5.082119    3.564134    0.701733
 C      3.472982   -2.860966   -1.956143
 H      3.524608   -3.748451   -2.545958
 C     -2.881189   -0.784654    3.110233
 H     -3.431906   -1.429190    3.757953
