61

 Si     0.710957   -1.976505    1.169146
 O     -0.365103   -2.475651    0.076309
 C     -1.728987   -2.645719    0.030043
 C     -2.357777   -1.429824   -0.600316
 H     -2.121987   -2.780160    1.041140
 C     -1.593449   -0.619423   -1.420562
 C     -3.701315   -1.136175   -0.413142
 C     -2.157932    0.477127   -2.049939
 H     -0.551530   -0.854287   -1.552431
 C     -4.273292   -0.044474   -1.046556
 H     -4.306283   -1.767570    0.228327
 C     -3.502673    0.764791   -1.868801
 H     -1.547462    1.101910   -2.694231
 H     -5.327107    0.172642   -0.898846
 H     -3.951393    1.617208   -2.368918
 C     -2.022083   -3.885968   -0.785737
 C     -1.446511   -5.089194   -0.164989
 H     -3.103603   -4.026302   -0.898226
 H     -1.592543   -3.756741   -1.781185
 C     -0.972379   -6.060472    0.357407
 H     -0.562393   -6.929390    0.814255
 Cl    -0.012351   -2.998024    2.800692
 Cl     2.605921   -2.661755    1.335732
 O      1.191581   -0.936528   -0.245536
 O      0.443242   -0.470916    1.937805
 C      1.926140    1.108822    0.403028
 C      0.507983    1.390927    0.590776
 C     -1.509217    0.656097    1.596505
 C      3.372195   -0.414709   -0.688564
 C      4.465724    0.474276   -0.491140
 C      2.928618    1.989075    0.618637
 C      4.250178    1.672598    0.207834
 C     -0.108445    2.463878    0.045830
 C     -1.491184    2.684703    0.259939
 C     -2.197480    1.772659    1.057912
 H      2.712220    2.938731    1.089741
 C      5.339625    2.541430    0.437453
 H      0.465612    3.151723   -0.559886
 C     -2.173170    3.790959   -0.290182
 C     -3.569515    1.978232    1.320143
 C     -2.151580   -0.283847    2.453376
 N      2.194204   -0.106507   -0.174437
 N     -0.219163    0.498645    1.332415
 C      3.481186   -1.611762   -1.462862
 C      5.757651    0.154443   -0.962145
 C      6.583976    2.212394   -0.016997
 C      6.796149    1.005914   -0.727060
 H      5.903884   -0.773278   -1.499554
 H      5.172306    3.466453    0.977708
 H      7.421887    2.881076    0.163420
 H      7.792839    0.760587   -1.083546
 C     -3.500854    3.970080   -0.031678
 C     -4.207291    3.056499    0.787091
 H     -4.095224    1.268656    1.943745
 H     -1.627893    4.492215   -0.911457
 H     -4.024338    4.824869   -0.453014
 H     -5.262783    3.219039    0.986612
 C      3.569198   -2.582840   -2.160257
 H      3.654554   -3.447896   -2.778798
 C     -2.712708   -1.049006    3.185210
 H     -3.198834   -1.743738    3.832764
