61

 Si     0.639911   -1.787860    1.690264
 O     -0.563211   -2.452766    0.835137
 C     -0.792209   -2.591001   -0.526868
 C     -1.736918   -1.508634   -0.953936
 H      0.138036   -2.469096   -1.074638
 C     -3.049824   -1.509257   -0.509215
 C     -1.296305   -0.474660   -1.763916
 C     -3.923155   -0.506186   -0.893049
 H     -3.392128   -2.307028    0.135308
 C     -2.163592    0.536777   -2.147997
 H     -0.270524   -0.465352   -2.104356
 C     -3.481897    0.517169   -1.720961
 H     -4.953275   -0.528688   -0.551563
 H     -1.810976    1.334511   -2.794895
 H     -4.167035    1.298410   -2.032966
 C     -1.300322   -3.992738   -0.768770
 C     -0.242223   -4.972308   -0.467043
 H     -1.615743   -4.117844   -1.811906
 H     -2.159683   -4.185377   -0.125926
 C      0.647323   -5.738953   -0.216271
 H      1.418521   -6.437032    0.007208
 Cl     0.122250   -2.680604    3.459303
 Cl     2.586416   -2.331936    1.754271
 O      0.922120   -0.855610    0.162678
 O      0.290629   -0.236231    2.311761
 C      1.658951    1.247677    0.582566
 C      0.248017    1.516425    0.829265
 C     -1.743513    0.646589    1.778217
 C      3.021028   -0.333161   -0.542085
 C      4.112589    0.577660   -0.513062
 C      2.664321    2.148003    0.644246
 C      3.946095    1.815083    0.130043
 C     -0.426521    2.526567    0.235758
 C     -1.826099    2.655335    0.412614
 C     -2.494035    1.695262    1.187052
 H      2.478204    3.126920    1.066074
 C      5.039237    2.706312    0.198065
 H      0.109024    3.221246   -0.396917
 C     -2.568181    3.699985   -0.179394
 C     -3.889445    1.789973    1.381367
 C     -2.348148   -0.365070    2.576321
 N      1.894785   -0.001478    0.063646
 N     -0.431660    0.613754    1.601475
 C      3.062651   -1.586208   -1.230842
 C      5.356908    0.241295   -1.088562
 C      6.238618    2.361393   -0.355427
 C      6.399893    1.115744   -1.008783
 H      5.464534   -0.716838   -1.580134
 H      4.911188    3.661828    0.694199
 H      7.079376    3.048243   -0.299056
 H      7.360836    0.858893   -1.446123
 C     -3.916284    3.774338    0.016416
 C     -4.585715    2.810658    0.809164
 H     -4.384205    1.044411    1.988602
 H     -2.052493    4.438265   -0.782865
 H     -4.485833    4.582514   -0.436085
 H     -5.659037    2.889716    0.958379
 C      3.063755   -2.615602   -1.845184
 H      3.068428   -3.533659   -2.388968
 C     -2.877848   -1.217669    3.230725
 H     -3.335605   -1.982113    3.817636
