61

 Si    -0.278064   -2.202561   -0.644346
 O      1.266429   -1.742011   -0.516485
 C      2.324194   -2.032170    0.331210
 C      2.385260   -0.917263    1.338413
 H      2.114468   -2.966561    0.857297
 C      3.493094   -0.110174    1.533042
 C      1.243440   -0.687808    2.093474
 C      3.462849    0.910410    2.472811
 H      4.397393   -0.276173    0.963536
 C      1.202003    0.333404    3.023043
 H      0.386127   -1.324423    1.952133
 C      2.317359    1.138170    3.217202
 H      4.343479    1.527102    2.622779
 H      0.301608    0.493544    3.608423
 H      2.294669    1.935781    3.953948
 C      3.561523   -2.224675   -0.506124
 C      3.334572   -3.257287   -1.527095
 H      4.408044   -2.522530    0.123879
 H      3.824415   -1.294501   -1.006464
 C      3.118056   -4.092203   -2.361796
 H      2.945276   -4.842475   -3.096470
 Cl    -1.133450   -3.103846   -2.232260
 Cl    -0.200044   -3.836301    0.597945
 O     -1.288150   -1.410968    0.482556
 O     -0.471471   -0.690356   -1.578383
 C     -2.033419    0.677564   -0.109797
 C     -0.628382    1.061683   -0.138142
 C      1.346047    0.672149   -1.387805
 C     -3.512967   -1.172070    0.065016
 C     -4.617276   -0.328077   -0.225531
 C     -3.054185    1.523545   -0.375293
 C     -4.386861    1.040894   -0.436954
 C     -0.070322    2.097830    0.522734
 C      1.275601    2.458866    0.260407
 C      1.983888    1.754166   -0.724691
 H     -2.841099    2.566115   -0.569258
 C     -5.481623    1.886017   -0.722705
 H     -0.659463    2.655310    1.238523
 C      1.909964    3.527643    0.929138
 C      3.311770    2.116498   -1.036163
 C      1.948563   -0.055725   -2.453377
 N     -2.297711   -0.647904    0.109417
 N      0.118117    0.346985   -1.036544
 C     -3.652580   -2.566682    0.332177
 C     -5.930775   -0.844634   -0.297424
 C     -6.743595    1.370205   -0.788873
 C     -6.972494   -0.011265   -0.574300
 H     -6.086936   -1.902596   -0.131389
 H     -5.304096    2.942658   -0.887991
 H     -7.584862    2.023025   -1.008487
 H     -7.984170   -0.403480   -0.631800
 C      3.195207    3.862417    0.619184
 C      3.906087    3.148906   -0.375127
 H      3.837851    1.563863   -1.803124
 H      1.361867    4.073390    1.688214
 H      3.680661    4.686335    1.136106
 H      4.928346    3.431133   -0.611869
 C     -3.757753   -3.740265    0.552883
 H     -3.839905   -4.787103    0.743146
 C      2.423585   -0.651813   -3.377466
 H      2.859839   -1.179709   -4.195102
