61

 Si     0.753742   -0.619488    1.834782
 O      0.943032   -1.840717    0.781975
 C      1.437778   -1.960124   -0.501541
 C      2.859162   -1.478371   -0.568681
 H      0.834001   -1.374497   -1.197173
 C      3.643069   -1.496120    0.571022
 C      3.409493   -1.054604   -1.770095
 C      4.965115   -1.086149    0.522496
 H      3.215971   -1.835149    1.502398
 C      4.735477   -0.655521   -1.828992
 H      2.800490   -1.041566   -2.667419
 C      5.516976   -0.668636   -0.680639
 H      5.565778   -1.100934    1.427174
 H      5.159917   -0.331773   -2.775468
 H      6.557021   -0.357418   -0.724782
 C      1.354684   -3.424212   -0.877931
 C     -0.029763   -3.884514   -1.081690
 H      1.906494   -3.613384   -1.806121
 H      1.814626   -4.011088   -0.081351
 C     -1.144251   -4.279433   -1.293138
 H     -2.114196   -4.657540   -1.498699
 Cl     1.956777    0.825919    2.585317
 Cl     0.935903   -1.839284    3.475475
 O      0.522759    0.348884    0.326970
 O     -0.900867   -0.320605    2.100596
 C     -1.232735    1.768567    0.539270
 C     -2.019924    0.564419    0.307908
 C     -2.310276   -1.704785    0.940901
 C      0.968858    2.595039    0.263056
 C      0.494683    3.924361    0.455383
 C     -1.734813    3.006913    0.730289
 C     -0.865446    4.130158    0.733801
 C     -2.955596    0.462450   -0.661054
 C     -3.644735   -0.760636   -0.863988
 C     -3.320176   -1.855276   -0.048254
 H     -2.801053    3.135479    0.861400
 C     -1.331608    5.442993    0.960878
 H     -3.166254    1.318797   -1.287260
 C     -4.641324   -0.908888   -1.852855
 C     -4.008842   -3.078792   -0.203319
 C     -1.930951   -2.772550    1.800658
 N      0.121090    1.589209    0.387560
 N     -1.723362   -0.525854    1.082457
 C      2.322727    2.314177   -0.096009
 C      1.376741    5.024887    0.398559
 C     -0.462984    6.495306    0.910331
 C      0.906974    6.285012    0.624053
 H      2.421930    4.847376    0.182495
 H     -2.382725    5.600362    1.175045
 H     -0.823547    7.505353    1.088026
 H      1.584516    7.133572    0.585671
 C     -5.289467   -2.101771   -1.995132
 C     -4.974651   -3.198801   -1.156883
 H     -3.756118   -3.905372    0.446739
 H     -4.885479   -0.064647   -2.487627
 H     -6.059793   -2.212998   -2.754362
 H     -5.508557   -4.137505   -1.277329
 C      3.454358    2.123521   -0.440517
 H      4.457255    1.933734   -0.743489
 C     -1.628030   -3.700210    2.496028
 H     -1.349874   -4.517276    3.123084
