59

 Si     1.192367   -0.520603    1.702184
 O      1.082113   -1.602804    0.542724
 C      1.755843   -1.727858   -0.690783
 C      3.226222   -1.814767   -0.429098
 H      1.540101   -0.845227   -1.287345
 C      3.702055   -2.719345    0.509229
 C      4.109857   -0.969093   -1.082945
 C      5.053491   -2.778529    0.799053
 H      3.007484   -3.370304    1.022892
 C      5.466863   -1.030859   -0.800789
 H      3.740077   -0.250504   -1.806294
 C      5.939535   -1.933433    0.140701
 H      5.417059   -3.483878    1.540500
 H      6.154525   -0.365338   -1.314540
 H      7.001386   -1.977840    0.366309
 C      1.186739   -2.948105   -1.363578
 C     -0.210587   -2.741924   -1.782015
 H      1.244915   -3.796057   -0.679279
 H      1.773318   -3.194006   -2.257447
 C     -1.334768   -2.559912   -2.162655
 H     -2.319122   -2.425198   -2.535159
 Cl     2.338900    1.074315    1.438766
 Cl     1.685155   -1.311955    3.456616
 O      0.096754    0.579921   -0.649583
 O     -0.418273   -0.069079    1.910667
 C     -1.388952    1.856549    0.448030
 C     -2.093836    0.582343    0.505917
 C     -1.845044   -1.692217    1.106523
 C      0.486558    2.821084   -0.605298
 C      0.121054    4.102400   -0.106524
 C     -1.783413    3.046539    0.949821
 C     -1.021556    4.215534    0.699402
 C     -3.253548    0.318539   -0.138798
 C     -3.771251   -0.996516   -0.186570
 C     -3.042438   -2.025335    0.434486
 H     -2.690566    3.096726    1.540312
 H     -3.765344    1.127090   -0.644512
 N     -0.225724    1.738731   -0.304723
 N     -1.423913   -0.439093    1.129820
 C     -1.385791    5.480239    1.217148
 C     -0.629740    6.579338    0.933593
 H     -0.907065    7.551431    1.331737
 C      0.520351    6.460129    0.116855
 H      1.114527    7.343045   -0.104496
 H     -2.270195    5.559068    1.839907
 C     -4.970197   -1.314137   -0.863721
 C     -5.406710   -2.605413   -0.905094
 H     -6.330087   -2.849506   -1.424986
 C     -4.669402   -3.640874   -0.274689
 H     -5.531092   -0.520239   -1.343890
 H     -5.035070   -4.663269   -0.319360
 C     -1.094770   -2.707408    1.789065
 C      1.640787    2.609932   -1.434971
 N     -0.544780   -3.580552    2.294917
 N      2.559534    2.425750   -2.102543
 C     -3.512042   -3.359585    0.382475
 H     -2.940095   -4.141511    0.864276
 C      0.889403    5.249474   -0.393859
 H      1.768398    5.154096   -1.018382
