59

 Si    -0.183295    2.198970    1.574668
 O      0.949923    1.918976    0.508489
 C      2.051125    2.408928   -0.189978
 C      2.701126    1.217493   -0.820418
 H      2.738803    2.879037    0.520405
 C      1.922687    0.356528   -1.579406
 C      4.048095    0.944999   -0.636999
 C      2.483871   -0.767278   -2.157319
 H      0.871628    0.565967   -1.698353
 C      4.616782   -0.177149   -1.222690
 H      4.660010    1.609565   -0.036002
 C      3.836504   -1.032752   -1.984790
 H      1.867654   -1.431850   -2.754514
 H      5.674329   -0.381012   -1.080936
 H      4.283121   -1.908174   -2.446917
 C      1.580541    3.431527   -1.195335
 C      1.011565    4.608311   -0.517583
 H      0.821792    2.974314   -1.831909
 H      2.417188    3.753962   -1.826404
 C      0.563131    5.553106    0.071974
 H      0.160977    6.392451    0.588363
 Cl     0.431797    3.118214    3.224286
 Cl    -1.909036    3.024310    1.057499
 O     -0.998035    0.718160   -0.706306
 O     -0.462837    0.584634    2.000017
 C     -2.030255   -0.859836    0.506098
 C     -0.652410   -1.289717    0.707755
 C      1.450413   -0.636888    1.563825
 C     -3.276290    0.660252   -0.791207
 C     -4.488966    0.102872   -0.295219
 C     -3.146429   -1.425894    1.012952
 C     -4.425008   -0.944041    0.636006
 C     -0.121188   -2.413098    0.172995
 C      1.254487   -2.702899    0.316759
 C      2.056165   -1.794131    1.028009
 H     -3.051943   -2.255667    1.703325
 H     -0.767629   -3.083750   -0.378002
 N     -2.095286    0.214829   -0.372236
 N      0.157831   -0.418586    1.387894
 C     -5.622236   -1.494169    1.149818
 C     -6.829085   -1.007619    0.741371
 H     -7.750135   -1.427756    1.135791
 C     -6.888494    0.046865   -0.201147
 H     -7.855675    0.425814   -0.521364
 H     -5.563132   -2.303323    1.869526
 C      1.845185   -3.864927   -0.226365
 C      3.175872   -4.099049   -0.044870
 H      3.630250   -4.996050   -0.458840
 C      3.978721   -3.187534    0.686240
 H      1.225878   -4.562497   -0.778708
 H      5.036043   -3.395966    0.824729
 C      2.238704    0.290385    2.321992
 C     -3.260923    1.728997   -1.751512
 N      2.959308    0.982208    2.890106
 N     -3.264118    2.574049   -2.532512
 C      3.434096   -2.057537    1.210508
 H      4.038713   -1.355697    1.767803
 C     -5.745216    0.591268   -0.710387
 H     -5.786696    1.397856   -1.430976
