59

 Si     0.712907   -0.743297    1.524335
 O      2.225644   -0.779191    1.026425
 C      3.178066   -1.786490    0.766046
 C      3.854180   -1.436209   -0.519630
 H      2.650926   -2.737508    0.655632
 C      4.535186   -0.231531   -0.630219
 C      3.769990   -2.278420   -1.618979
 C      5.124862    0.132463   -1.827823
 H      4.596344    0.427766    0.223847
 C      4.366637   -1.921479   -2.820617
 H      3.240120   -3.221829   -1.541099
 C      5.042835   -0.715494   -2.926976
 H      5.654612    1.077491   -1.903929
 H      4.300874   -2.589082   -3.675079
 H      5.509582   -0.434167   -3.866970
 C      4.115262   -1.873556    1.947576
 C      3.401239   -2.303078    3.162762
 H      4.565027   -0.894558    2.118937
 H      4.918851   -2.588986    1.734808
 C      2.787339   -2.657072    4.132139
 H      2.251940   -2.971483    4.996335
 Cl     0.539667    0.241820    3.236709
 Cl    -0.110730   -2.548980    1.444837
 O      0.041551    0.165465    0.264653
 O     -2.094582   -0.101838    1.886255
 C     -1.808509    1.475124   -0.043557
 C     -2.500662    0.217886   -0.300838
 C     -3.324335   -1.690315    0.805069
 C      0.273348    2.424032    0.569005
 C     -0.281391    3.720377    0.563129
 C     -2.384646    2.701318   -0.083068
 C     -1.642844    3.861545    0.235142
 C     -3.001166   -0.189357   -1.487490
 C     -3.699457   -1.417007   -1.586502
 C     -3.871700   -2.171518   -0.417347
 H     -3.430614    2.776603   -0.350434
 H     -2.861269    0.434939   -2.361855
 N     -0.491172    1.370240    0.316560
 N     -2.639072   -0.547240    0.853467
 C     -2.217679    5.153901    0.228450
 C     -1.454058    6.239906    0.535748
 H     -1.896577    7.233173    0.531538
 C     -0.079014    6.093306    0.861660
 H      0.510815    6.973752    1.102618
 H     -3.266815    5.262596   -0.022397
 C     -4.229828   -1.890919   -2.809484
 C     -4.905305   -3.074488   -2.848870
 H     -5.313319   -3.441387   -3.786499
 C     -5.080161   -3.831692   -1.665154
 H     -4.089697   -1.299733   -3.707841
 H     -5.622283   -4.773005   -1.706302
 C     -3.482238   -2.407129    2.039939
 C      1.677572    2.214937    0.801582
 N     -3.631188   -2.996325    3.017193
 N      2.808165    2.108141    0.974744
 C     -4.576370   -3.392424   -0.475554
 H     -4.709195   -3.969091    0.430660
 C      0.498164    4.862329    0.873867
 H      1.544173    4.736769    1.122848
