59

 Si     0.641769   -2.025363    1.208982
 O     -0.600163   -2.088269    0.196311
 C     -1.876577   -2.597889    0.073565
 C     -2.727281   -1.497127   -0.494210
 H     -2.254303   -2.908553    1.051324
 C     -2.148702   -0.625175   -1.403316
 C     -4.062332   -1.345679   -0.153913
 C     -2.894015    0.390404   -1.975955
 H     -1.106990   -0.754947   -1.654437
 C     -4.815608   -0.332215   -0.729260
 H     -4.517634   -2.019772    0.564161
 C     -4.234499    0.534791   -1.642602
 H     -2.433121    1.062694   -2.692931
 H     -5.862676   -0.221928   -0.461111
 H     -4.827667    1.322765   -2.096878
 C     -1.836534   -3.792188   -0.854501
 C     -0.918236   -4.828453   -0.358047
 H     -1.495554   -3.462869   -1.837973
 H     -2.839112   -4.221734   -0.967744
 C     -0.154442   -5.654901    0.059580
 H      0.515873   -6.394215    0.428453
 Cl    -0.114518   -3.022802    2.816127
 Cl     2.447888   -2.927782    1.234580
 O      1.254266   -1.003658   -0.235272
 O      0.573612   -0.493594    1.981561
 C      2.055944    1.002689    0.425444
 C      0.642378    1.318932    0.586690
 C     -1.386808    0.614007    1.561723
 C      3.469000   -0.574372   -0.608312
 C      4.593691    0.263875   -0.396626
 C      3.089159    1.845710    0.658350
 C      4.405710    1.479001    0.284797
 C      0.031194    2.370140   -0.009423
 C     -1.352886    2.596258    0.171541
 C     -2.074401    1.705985    0.985579
 H      2.896168    2.806097    1.119269
 H      0.616382    3.037773   -0.628205
 N      2.284387   -0.227837   -0.138475
 N     -0.092965    0.452986    1.347759
 C      5.521389    2.310630    0.531465
 C      6.761832    1.930166    0.109763
 H      7.620448    2.568635    0.301920
 C      6.944603    0.707622   -0.583354
 H      7.939743    0.422109   -0.914102
 H      5.375778    3.247284    1.057929
 C     -2.025751    3.686338   -0.421441
 C     -3.356098    3.873654   -0.184848
 H     -3.873477    4.716526   -0.636796
 C     -4.074381    2.985522    0.652901
 H     -1.470850    4.369403   -1.054490
 H     -5.131761    3.156651    0.834963
 C     -2.079147   -0.307437    2.415455
 C      3.560264   -1.776646   -1.394015
 N     -2.736642   -0.986872    3.068581
 N      3.677585   -2.684156   -2.090827
 C     -3.449921    1.920565    1.224941
 H     -3.989594    1.233785    1.861939
 C      5.883395   -0.109550   -0.835282
 H      6.012188   -1.047014   -1.361308
