59

 Si     0.249567   -1.932743    0.019730
 O      1.494627   -0.934242    0.252501
 C      2.603863   -0.905058    1.095760
 C      3.810199   -1.080053    0.227127
 H      2.531292   -1.741046    1.794882
 C      3.826203   -2.198393   -0.597054
 C      4.857224   -0.176588    0.164485
 C      4.865871   -2.406974   -1.482379
 H      3.012926   -2.907394   -0.540211
 C      5.908081   -0.384039   -0.718738
 H      4.872801    0.694110    0.806528
 C      5.912117   -1.494441   -1.546803
 H      4.863052   -3.284637   -2.121845
 H      6.726586    0.329013   -0.756982
 H      6.732850   -1.654382   -2.240114
 C      2.538418    0.379258    1.883175
 C      1.225543    0.520450    2.529304
 H      2.701404    1.234677    1.232144
 H      3.318576    0.396930    2.652797
 C      0.143793    0.613934    3.040389
 H     -0.797285    0.694297    3.526497
 Cl    -0.050461   -3.157485   -1.550773
 Cl     0.692565   -3.344316    1.423079
 O     -1.148069   -1.471118    0.900732
 O     -0.308407   -0.630713   -1.110326
 C     -2.508497    0.088015   -0.094424
 C     -1.381381    1.001693    0.037035
 C      0.803561    1.331859   -0.785435
 C     -3.186151   -2.161285    0.159698
 C     -4.443500   -1.878154   -0.420416
 C     -3.702514    0.420478   -0.643276
 C     -4.709034   -0.556942   -0.824539
 C     -1.389292    2.214528    0.636268
 C     -0.246173    3.046559    0.566953
 C      0.858179    2.613471   -0.187170
 H     -3.867941    1.440304   -0.965354
 H     -2.275435    2.542025    1.164752
 N     -2.283198   -1.204314    0.291883
 N     -0.258093    0.573284   -0.616228
 C     -5.960681   -0.254541   -1.407173
 C     -6.891150   -1.238454   -1.569806
 H     -7.853931   -1.005505   -2.018246
 C     -6.619228   -2.569074   -1.159629
 H     -7.374571   -3.337997   -1.298941
 H     -6.165789    0.762867   -1.720551
 C     -0.187712    4.303746    1.210360
 C      0.928840    5.077990    1.094498
 H      0.974304    6.043213    1.592751
 C      2.035143    4.640592    0.322879
 H     -1.037829    4.637466    1.794625
 H      2.912796    5.275767    0.235863
 C      1.859965    0.826954   -1.611572
 C     -2.864990   -3.472515    0.656128
 N      2.716556    0.476416   -2.291674
 N     -2.683862   -4.537622    1.049903
 C      2.002049    3.434089   -0.308164
 H      2.838944    3.088386   -0.901582
 C     -5.421586   -2.885349   -0.595034
 H     -5.201134   -3.897002   -0.278282
