59

 Si    -0.467561   -2.301056   -0.401846
 O      1.106652   -1.993022   -0.531991
 C      2.373640   -2.011416    0.023180
 C      2.474600   -0.893440    1.022714
 H      3.059403   -1.802967   -0.803806
 C      1.411063   -0.624990    1.864944
 C      3.615600   -0.106615    1.097365
 C      1.466025    0.433169    2.755199
 H      0.538160   -1.251489    1.828525
 C      3.683474    0.945780    1.995810
 H      4.459758   -0.319281    0.451349
 C      2.603863    1.224589    2.821884
 H      0.621168    0.630565    3.408290
 H      4.582637    1.551880    2.049738
 H      2.653765    2.052099    3.523807
 C      2.758143   -3.355645    0.590975
 C      2.643529   -4.395875   -0.442225
 H      2.123208   -3.609823    1.437520
 H      3.796345   -3.307960    0.942496
 C      2.537428   -5.215768   -1.312238
 H      2.451377   -5.957438   -2.070495
 Cl    -1.568298   -3.311848   -1.743909
 Cl    -0.422992   -3.678810    1.099923
 O     -1.326528   -1.247407    0.652200
 O     -0.638771   -0.897991   -1.541296
 C     -1.986584    0.776913   -0.192253
 C     -0.566302    1.045247   -0.371612
 C      1.263550    0.346342   -1.681509
 C     -3.555505   -0.899005    0.366321
 C     -4.630089   -0.048167    0.021772
 C     -2.977131    1.642488   -0.520761
 C     -4.333720    1.253634   -0.422785
 C      0.117894    2.115117    0.095029
 C      1.454734    2.334511   -0.311591
 C      2.026879    1.455691   -1.247260
 H     -2.716505    2.626925   -0.886917
 H     -0.371226    2.806235    0.769408
 N     -2.308671   -0.476610    0.244498
 N      0.052529    0.152308   -1.204272
 C     -5.395458    2.119284   -0.771220
 C     -6.685585    1.688255   -0.672279
 H     -7.502014    2.354638   -0.940120
 C     -6.979341    0.375268   -0.221901
 H     -8.014496    0.051817   -0.150795
 H     -5.168379    3.121693   -1.116246
 C      2.215981    3.426732    0.159878
 C      3.486209    3.619327   -0.295569
 H      4.071602    4.460056    0.068131
 C      4.054385    2.735830   -1.246619
 H      1.775944    4.102500    0.884051
 H      5.066515    2.909709   -1.602433
 C      1.750154   -0.585442   -2.656404
 C     -3.776198   -2.220082    0.890555
 N      2.173656   -1.297688   -3.452589
 N     -4.022733   -3.257271    1.321688
 C      3.340931    1.675171   -1.715649
 H      3.762981    0.992828   -2.442319
 C     -5.974665   -0.477277    0.119875
 H     -6.185028   -1.482220    0.463788
