65

 Si     0.793563   -1.021314    1.158176
 O      2.308716   -1.122194    0.575313
 C      3.623554   -1.279524    0.965984
 C      4.499291   -0.878197   -0.184606
 H      3.830822   -0.631830    1.823451
 C      4.044755   -1.079339   -1.477119
 C      5.749592   -0.313885    0.021599
 C      4.822251   -0.707019   -2.561135
 H      3.071266   -1.521609   -1.626189
 C      6.535196    0.055397   -1.059625
 H      6.111649   -0.155981    1.031712
 C      6.071990   -0.137352   -2.353189
 H      4.455437   -0.867275   -3.570851
 H      7.513089    0.497064   -0.890007
 H      6.687240    0.151790   -3.200591
 C      3.885954   -2.718191    1.365541
 C      3.231699   -3.088314    2.632548
 H      4.963726   -2.877581    1.483049
 H      3.529382   -3.372749    0.569387
 C      2.713812   -3.379165    3.676384
 H      2.254709   -3.643256    4.598478
 Cl     1.211188   -0.061933    2.892006
 Cl     0.319598   -2.961735    0.855815
 O      0.407438   -0.104493   -0.251853
 O     -0.919171   -0.618590    1.618427
 C     -1.472943    1.167177   -0.076660
 C     -2.143201   -0.117854   -0.233052
 C     -2.602357   -2.049607    1.043094
 C      0.685362    2.123122    0.080921
 C      0.122960    3.404630    0.286939
 C     -2.090614    2.359858    0.155780
 C     -1.277352    3.521846    0.335177
 C     -2.996525   -0.477507   -1.227336
 C     -3.708523   -1.712521   -1.090759
 C     -3.551236   -2.474603    0.079481
 N     -0.108333    1.083785   -0.072662
 N     -1.896230   -0.962167    0.821020
 C     -1.833143    4.800492    0.564637
 C     -1.025876    5.887441    0.732994
 H     -1.467254    6.865496    0.908188
 C      0.383228    5.758122    0.681651
 H      1.011141    6.634382    0.818572
 H     -2.907692    4.914323    0.604876
 C     -4.610590   -2.172902   -2.073615
 C     -5.313139   -3.328494   -1.883744
 H     -6.004177   -3.672142   -2.649406
 C     -5.155400   -4.082520   -0.698072
 H     -4.744316   -1.601798   -2.982258
 H     -5.724247   -4.998051   -0.560114
 C     -2.408195   -2.742763    2.289202
 C      2.105318    1.914746    0.020418
 N     -2.335166   -3.285556    3.300387
 N      3.250179    1.842268   -0.029715
 C     -4.289986   -3.662504    0.267325
 H     -4.151310   -4.229356    1.179343
 C      0.947718    4.539066    0.462037
 H      2.022778    4.417836    0.421593
 C     -3.583183    2.459544    0.247835
 H     -3.862140    2.902676    1.204178
 H     -3.973997    3.094656   -0.548688
 H     -4.052913    1.486620    0.175532
 C     -3.199404    0.397035   -2.427247
 H     -2.952345   -0.161232   -3.331150
 H     -4.239213    0.718709   -2.501034
 H     -2.564432    1.275026   -2.388372
