65

 Si     0.843217   -1.357303    0.864537
 O      2.679744   -1.763123    0.455367
 C      3.383294   -1.848470   -0.543386
 C      4.825213   -2.003343   -0.503185
 H      2.924688   -1.804099   -1.538285
 C      5.478954   -2.088231    0.728520
 C      5.550786   -2.061562   -1.693341
 C      6.848859   -2.229969    0.768896
 H      4.892340   -2.044648    1.638232
 C      6.927496   -2.202261   -1.650822
 H      5.035584   -1.994703   -2.646813
 C      7.571065   -2.286186   -0.423183
 H      7.363878   -2.298259    1.722327
 H      7.499684   -2.247187   -2.572624
 H      8.652460   -2.397535   -0.390232
 C      3.164982    1.402943   -0.790666
 C      2.245536    0.929855    0.003166
 H      2.910755    1.755558   -1.785499
 H      4.195479    1.469957   -0.449778
 C      1.331229    0.420536    0.790170
 H      0.814371    1.099449    1.455951
 Cl     0.263572   -2.445169   -0.759781
 Cl     1.157149   -2.317549    2.624483
 O     -0.841649   -0.942211    1.365936
 O     -0.987093    0.633663   -1.965411
 C     -2.450928   -0.072676   -0.011776
 C     -1.691122    1.162451    0.115287
 C     -0.238613    2.587091   -1.075966
 C     -2.550793   -2.314811    0.715820
 C     -3.705634   -2.536164   -0.067787
 C     -3.556642   -0.211456   -0.796438
 C     -4.197711   -1.482303   -0.854963
 C     -1.665012    1.941701    1.225366
 C     -0.868981    3.128997    1.215970
 C     -0.167020    3.455870    0.049115
 N     -1.944751   -1.139373    0.681862
 N     -0.946214    1.451803   -1.032990
 C     -5.328549   -1.722658   -1.670675
 C     -5.926929   -2.946494   -1.681605
 H     -6.794192   -3.119358   -2.313783
 C     -5.431836   -4.000691   -0.872878
 H     -5.923133   -4.969729   -0.889914
 H     -5.712702   -0.924338   -2.290636
 C     -0.762976    3.979611    2.340056
 C      0.006190    5.105005    2.291062
 H      0.082277    5.752276    3.160001
 C      0.704687    5.432348    1.106940
 H     -1.298263    3.728278    3.245990
 H      1.313672    6.331969    1.070898
 C      0.502178    2.839159   -2.278105
 C     -2.025050   -3.351809    1.562747
 N      1.133616    3.038916   -3.219944
 N     -1.688060   -4.226261    2.229169
 C      0.620232    4.625323    0.009956
 H      1.154353    4.869066   -0.898991
 C     -4.344338   -3.799925   -0.081967
 H     -3.950215   -4.595228    0.537170
 C     -2.447971    1.551879    2.438857
 H     -1.766603    1.252559    3.236057
 H     -3.045990    2.390587    2.793749
 H     -3.112324    0.722126    2.234341
 C     -4.077806    0.952437   -1.577749
 H     -3.854752    0.809970   -2.635805
 H     -5.156317    1.045752   -1.456700
 H     -3.617369    1.877947   -1.256321
