65

 Si     0.046128   -1.996904    0.514269
 O      1.225557   -0.931558    0.436405
 C      2.638441   -0.975054    0.326107
 C      3.014942   -1.649202   -0.953046
 H      2.940623    0.068282    0.289342
 C      2.668492   -2.975064   -1.172402
 C      3.670470   -0.944190   -1.949381
 C      2.957132   -3.586321   -2.377542
 H      2.169161   -3.535074   -0.396114
 C      3.962981   -1.550475   -3.161919
 H      3.956090    0.086071   -1.786777
 C      3.603494   -2.871651   -3.378948
 H      2.677759   -4.623565   -2.536543
 H      4.465613   -0.983056   -3.939403
 H      3.828282   -3.348195   -4.328840
 C      3.239701   -1.607258    1.557309
 C      2.765354   -0.958280    2.790620
 H      4.332178   -1.524357    1.502698
 H      2.989956   -2.666675    1.601973
 C      2.363277   -0.443772    3.798013
 H      2.038696   -0.007282    4.711909
 Cl    -0.714250   -2.527347   -1.232213
 Cl     0.402389   -3.556583    1.686794
 O     -1.137507   -1.131657    1.329822
 O     -0.802091    0.630862   -1.972533
 C     -2.078855    0.615997    0.182472
 C     -0.731453    1.161964    0.218407
 C      1.089440    1.625659   -1.203089
 C     -3.316072   -1.347398    0.682814
 C     -4.451029   -0.823320    0.037816
 C     -3.141393    1.191019   -0.451431
 C     -4.359592    0.457290   -0.542861
 C     -0.076741    1.588651    1.326031
 C      1.250437    2.090178    1.183811
 C      1.819998    2.132298   -0.093553
 N     -2.199942   -0.637474    0.706071
 N     -0.136080    1.124328   -1.047271
 C     -5.495254    0.967305   -1.214407
 C     -6.643388    0.237196   -1.287274
 H     -7.507892    0.641558   -1.808253
 C     -6.728505   -1.047426   -0.690010
 H     -7.654171   -1.612721   -0.757183
 H     -5.442846    1.944244   -1.674930
 C      2.007172    2.544815    2.285845
 C      3.274934    3.016158    2.113912
 H      3.850287    3.360137    2.968444
 C      3.839332    3.065431    0.820232
 H      1.571163    2.512763    3.274328
 H      4.847074    3.450170    0.684973
 C      1.646349    1.575688   -2.523718
 C     -3.305039   -2.635677    1.323572
 N      2.123641    1.533762   -3.570215
 N     -3.309676   -3.667524    1.831437
 C      3.126310    2.635093   -0.260756
 H      3.551140    2.673819   -1.255050
 C     -5.654917   -1.567370   -0.039608
 H     -5.698056   -2.547062    0.419473
 C     -0.739860    1.538117    2.663192
 H     -0.207212    0.836422    3.303607
 H     -0.720328    2.520239    3.135556
 H     -1.770529    1.217322    2.585822
 C     -3.007557    2.552437   -1.053315
 H     -2.977662    2.468517   -2.140034
 H     -3.850833    3.182020   -0.771056
 H     -2.095262    3.033679   -0.723404
