65

 Si     0.955114   -0.731859    0.994364
 O      2.474300   -0.704463    0.533693
 C      3.474329   -1.687161    0.319377
 C      4.274329   -1.253122   -0.863281
 H      2.974524   -2.634370    0.100131
 C      4.905798   -0.016963   -0.844595
 C      4.364735   -2.052862   -1.993950
 C      5.617722    0.421707   -1.946711
 H      4.829564    0.610261    0.032025
 C      5.086024   -1.621120   -3.098365
 H      3.875748   -3.021042   -2.015909
 C      5.711079   -0.383227   -3.076675
 H      6.104783    1.391987   -1.923347
 H      5.157942   -2.254911   -3.977695
 H      6.274458   -0.043275   -3.941357
 C      4.285093   -1.832811    1.585471
 C      3.463073   -2.352321    2.693035
 H      4.695228   -0.860153    1.861601
 H      5.121183   -2.520927    1.411380
 C      2.766243   -2.780580    3.572246
 H      2.154350   -3.157966    4.357015
 Cl     0.582261    0.071062    2.765899
 Cl     0.089212   -2.503249    0.741741
 O      0.245426    0.289276   -0.143771
 O     -2.761260    0.272884    2.237653
 C     -1.770327    1.341650    0.186192
 C     -2.321720    0.003050    0.037054
 C     -3.273213   -1.739306    1.308128
 C      0.286952    2.506766    0.388451
 C     -0.390630    3.698607    0.699201
 C     -2.494790    2.464456    0.468438
 C     -1.798885    3.674666    0.745328
 C     -2.309629   -0.730709   -1.104324
 C     -2.817496   -2.063891   -1.067197
 C     -3.294935   -2.565984    0.149678
 N     -0.407747    1.400410    0.172316
 N     -2.800450   -0.491468    1.257704
 C     -2.475697    4.871132    1.083617
 C     -1.778551    6.010124    1.349780
 H     -2.311595    6.921296    1.610249
 C     -0.359594    6.025791    1.291011
 H      0.177975    6.945782    1.504593
 H     -3.555850    4.870870    1.134154
 C     -2.833078   -2.898760   -2.207054
 C     -3.305831   -4.175256   -2.127229
 H     -3.314272   -4.810449   -3.008264
 C     -3.787715   -4.674604   -0.895985
 H     -2.463127   -2.515861   -3.148684
 H     -4.164757   -5.692306   -0.836833
 C     -3.728790   -2.209220    2.586226
 C      1.720639    2.420760    0.310039
 N     -4.092125   -2.607333    3.603413
 N      2.867518    2.363641    0.269720
 C     -3.782668   -3.886979    0.217943
 H     -4.150377   -4.262851    1.163753
 C      0.320678    4.894502    0.971744
 H      1.402282    4.884531    0.925237
 C     -3.987779    2.402647    0.499516
 H     -4.333695    2.464609    1.531365
 H     -4.417918    3.227407   -0.068016
 H     -4.345999    1.472349    0.076721
 C     -1.762149   -0.151182   -2.368844
 H     -0.873132   -0.701738   -2.675108
 H     -2.500553   -0.221993   -3.167577
 H     -1.492227    0.890050   -2.246428
