65

 Si     0.600586   -1.933296    1.841452
 O     -0.738682   -2.116202    1.003610
 C     -1.060056   -2.465306   -0.323471
 C     -2.255145   -1.652934   -0.704870
 H     -0.217379   -2.208807   -0.964458
 C     -3.395291   -1.723125    0.084837
 C     -2.247713   -0.841083   -1.826520
 C     -4.523652   -0.997557   -0.246826
 H     -3.396957   -2.353269    0.963369
 C     -3.378893   -0.110241   -2.163000
 H     -1.355617   -0.775348   -2.434672
 C     -4.517880   -0.191874   -1.379269
 H     -5.412250   -1.066142    0.373235
 H     -3.369628    0.517095   -3.049271
 H     -5.406329    0.370506   -1.650043
 C     -1.341487   -3.949029   -0.388205
 C     -0.204145   -4.762309    0.071359
 H     -1.587576   -4.228604   -1.419840
 H     -2.203971   -4.176178    0.240384
 C      0.715593   -5.424776    0.467173
 H      1.530202   -6.015057    0.814061
 Cl     0.554430   -2.772367    3.634808
 Cl     2.321996   -2.327740    0.939435
 O      0.705775   -0.306178   -1.644555
 O      0.534108   -0.266434    2.107482
 C      1.636691    0.861596    0.042488
 C      0.240626    1.159207    0.326660
 C     -1.572201    0.554504    1.723873
 C      2.976454   -0.291962   -1.515479
 C      4.142740    0.098287   -0.797932
 C      2.700882    1.259880    0.784353
 C      4.009053    0.867121    0.365505
 C     -0.541975    1.985325   -0.424487
 C     -1.912913    2.136017   -0.072202
 C     -2.429806    1.422352    1.024213
 N      1.763838    0.056538   -1.090455
 N     -0.304090    0.458216    1.363282
 C      5.170857    1.226066    1.084753
 C      6.404064    0.832822    0.654186
 H      7.291836    1.112497    1.214261
 C      6.530468    0.061397   -0.522813
 H      7.515656   -0.247378   -0.862559
 H      5.074253    1.816887    1.985867
 C     -2.782643    2.999046   -0.777840
 C     -4.076630    3.151711   -0.382618
 H     -4.732038    3.825777   -0.928756
 C     -4.582120    2.445061    0.737898
 H     -2.407383    3.544872   -1.632274
 H     -5.615519    2.585612    1.042542
 C     -2.026928   -0.228082    2.837235
 C      3.037249   -1.124513   -2.683953
 N     -2.429288   -0.856216    3.711748
 N      3.095358   -1.795923   -3.617083
 C     -3.777970    1.591830    1.422375
 H     -4.147001    1.038468    2.275501
 C      5.422772   -0.298299   -1.234227
 H      5.511188   -0.889626   -2.136288
 C      0.041096    2.719283   -1.589333
 H     -0.350990    2.299959   -2.516111
 H     -0.216679    3.777027   -1.546095
 H      1.119662    2.631632   -1.607078
 C      2.499727    2.090072    2.011276
 H      2.834801    1.539066    2.889990
 H      3.079106    3.011361    1.943877
 H      1.457760    2.348761    2.149499
