77

 Si    -0.103070   -1.158007   -0.181239
 O      1.274566   -0.520855    0.365292
 C      2.232963   -0.614723    1.346924
 C      3.293352   -1.604660    0.960878
 H      2.696201    0.377132    1.394451
 C      3.091204   -2.456479   -0.109378
 C      4.509987   -1.633758    1.632007
 C      4.085806   -3.332205   -0.512117
 H      2.153924   -2.436652   -0.636690
 C      5.508495   -2.508455    1.235763
 H      4.683031   -0.964787    2.467830
 C      5.298884   -3.361145    0.159782
 H      3.908437   -3.994044   -1.354557
 H      6.455219   -2.523127    1.768576
 H      6.080726   -4.047703   -0.152341
 C      1.629214   -0.870261    2.709237
 C      0.605011    0.136297    3.031694
 H      2.417779   -0.823022    3.468626
 H      1.175396   -1.857183    2.748688
 C     -0.224998    0.960344    3.302166
 H     -0.957810    1.673196    3.586976
 Cl    -0.414127   -2.085084   -1.954784
 Cl    -0.139067   -2.871186    0.937159
 O     -1.399085   -0.509335    0.696686
 O     -0.220629    0.314096   -1.146647
 C     -2.242859    1.436840   -0.176650
 C     -0.944289    2.025155    0.124249
 C      1.315616    1.924275   -0.616895
 C     -3.479008   -0.593465   -0.203577
 C     -4.568130    0.070642   -0.824010
 C     -3.254361    2.112977   -0.761632
 C     -4.456596    1.441389   -1.107884
 C     -0.721316    3.125236    0.866708
 C      0.579992    3.694631    0.895288
 C      1.588904    3.129008    0.097193
 H     -3.132670    3.164640   -0.982402
 C     -5.536091    2.109021   -1.725398
 H     -1.537283    3.589264    1.403874
 C      0.856787    4.854757    1.650019
 C      2.840344    3.779064    0.009079
 C      2.285006    1.200713   -1.437366
 N     -2.390272    0.097252    0.073879
 N      0.097766    1.429281   -0.535835
 C     -3.496001   -2.003706    0.191629
 C     -5.763152   -0.616383   -1.136531
 C     -6.676910    1.424944   -2.032972
 C     -6.794346    0.047044   -1.731661
 H     -5.845028   -1.666546   -0.893467
 H     -5.445307    3.166098   -1.948024
 H     -7.507481    1.941290   -2.507890
 H     -7.713286   -0.479584   -1.973810
 C      2.087833    5.440470    1.583590
 C      3.086137    4.905128    0.738299
 H      3.594547    3.387428   -0.656586
 H      0.075180    5.274955    2.272636
 H      2.297647    6.334751    2.164853
 H      4.050645    5.399729    0.663280
 C     -3.573284   -3.000108   -0.769555
 C     -3.427192   -2.319462    1.539332
 C     -3.519074   -4.646866    0.973550
 C     -3.448611   -3.644624    1.931083
 C     -3.576482   -4.325500   -0.375789
 H     -3.608481   -2.742540   -1.820489
 H     -3.625741   -5.110270   -1.124317
 H     -3.530248   -5.688808    1.281257
 H     -3.404904   -3.896354    2.985938
 H     -3.353269   -1.532526    2.276704
 C      1.892838    0.708650   -2.673133
 C      3.572037    0.956421   -0.976470
 C      4.050951   -0.296025   -2.961706
 C      4.450449    0.205691   -1.731145
 C      2.773159   -0.036049   -3.434549
 H      0.898484    0.902459   -3.039269
 H      2.457657   -0.415094   -4.401670
 H      4.741499   -0.886946   -3.557156
 H      5.448277    0.006241   -1.354723
 H      3.888506    1.327016   -0.014862
