77

 Si     0.300049   -1.022952    1.682528
 O     -0.930695   -1.394478    0.672139
 C     -1.336410   -2.214953   -0.346662
 C     -1.979427   -1.354592   -1.397586
 H     -2.076062   -2.918079    0.055481
 C     -1.209456   -0.405921   -2.051313
 C     -3.324087   -1.470287   -1.712548
 C     -1.764878    0.405921   -3.022280
 H     -0.171215   -0.314039   -1.786170
 C     -3.892433   -0.647328   -2.675404
 H     -3.935478   -2.215771   -1.215958
 C     -3.112335    0.287669   -3.336249
 H     -1.146916    1.130624   -3.542027
 H     -4.946961   -0.747935   -2.916155
 H     -3.552111    0.920494   -4.100988
 C     -0.179415   -2.999912   -0.920676
 C      0.587304   -3.685086    0.124032
 H     -0.548235   -3.735508   -1.644531
 H      0.491102   -2.322760   -1.436279
 C      1.219112   -4.215598    0.995126
 H      1.774526   -4.676922    1.775966
 Cl    -0.584645   -1.991316    3.249990
 Cl     2.171777   -1.205832    2.461851
 O      0.988928   -0.460612    0.136489
 O     -0.108514    0.575470    2.040351
 C      1.411357    1.759912    0.312605
 C     -0.035422    1.885988    0.184924
 C     -2.103170    1.100445    1.054895
 C      3.168884    0.208013   -0.059841
 C      4.120936    1.257083    0.070825
 C      2.272393    2.784158    0.471374
 C      3.672169    2.548451    0.391611
 C     -0.652706    2.617111   -0.763212
 C     -2.070007    2.612824   -0.850516
 C     -2.800150    1.824692    0.052240
 H      1.891189    3.783648    0.632050
 C      4.612689    3.586085    0.563862
 H     -0.062744    3.188311   -1.466835
 C     -2.757865    3.370584   -1.819714
 C     -4.209639    1.805576   -0.017990
 C     -2.759272    0.360639    2.129679
 N      1.895916    0.486202    0.130660
 N     -0.789782    1.164749    1.070295
 C      3.506361   -1.160571   -0.463581
 C      5.501965    1.024898   -0.112116
 C      5.945954    3.335015    0.409071
 C      6.395482    2.040992    0.058267
 H      5.838601    0.036923   -0.390966
 H      4.260722    4.579753    0.817040
 H      6.668735    4.135694    0.543993
 H      7.457723    1.859581   -0.080064
 C     -4.120899    3.330883   -1.878413
 C     -4.855929    2.538176   -0.968462
 H     -4.763865    1.213825    0.695880
 H     -2.190073    3.979697   -2.513392
 H     -4.648918    3.917082   -2.626412
 H     -5.940879    2.522887   -1.022107
 C      4.386835   -1.941589    0.271205
 C      2.931883   -1.655228   -1.623364
 C      4.101113   -3.723939   -1.311063
 C      3.232759   -2.935772   -2.051458
 C      4.677727   -3.225946   -0.149463
 H      4.825646   -1.555752    1.181709
 H      5.358920   -3.841175    0.430758
 H      4.333619   -4.732504   -1.641745
 H      2.787801   -3.319607   -2.964260
 H      2.256995   -1.035550   -2.195621
 C     -2.561375    0.771155    3.438066
 C     -3.571193   -0.723216    1.841608
 C     -3.999604   -0.994951    4.183980
 C     -4.187095   -1.407254    2.871252
 C     -3.190214    0.095202    4.466995
 H     -1.920870    1.615275    3.650379
 H     -3.046116    0.419868    5.492759
 H     -4.492652   -1.526975    4.992966
 H     -4.819582   -2.261605    2.651184
 H     -3.697880   -1.040042    0.819338
