77

 Si    -0.423166   -1.217025   -0.138203
 O      1.112416   -0.964238    0.303328
 C      1.917944   -1.543589    1.269893
 C      3.012939   -2.295635    0.573583
 H      1.323615   -2.257714    1.845047
 C      2.659255   -3.018146   -0.557461
 C      4.328579   -2.321157    1.007396
 C      3.603371   -3.747917   -1.254566
 H      1.632794   -3.009727   -0.887377
 C      5.280884   -3.055850    0.314354
 H      4.625866   -1.775023    1.893309
 C      4.922616   -3.767495   -0.819609
 H      3.307687   -4.308388   -2.136375
 H      6.308651   -3.069986    0.666385
 H      5.668643   -4.341447   -1.361943
 C      2.356425   -0.452570    2.215117
 C      1.185004    0.215018    2.800809
 H      2.961159   -0.865765    3.029476
 H      2.961235    0.285903    1.695095
 C      0.214628    0.732457    3.280626
 H     -0.633774    1.186463    3.729287
 Cl    -1.030982   -1.939427   -1.928849
 Cl    -0.780042   -2.935391    0.920682
 O     -1.518920   -0.361517    0.838986
 O     -0.265677    0.310430   -1.009871
 C     -2.018772    1.738506    0.069221
 C     -0.628404    2.059867    0.358932
 C      1.556417    1.576912   -0.449474
 C     -3.612439   -0.023707    0.020234
 C     -4.574153    0.856092   -0.540691
 C     -2.899392    2.613715   -0.459762
 C     -4.214695    2.190910   -0.787716
 C     -0.191185    3.061635    1.143126
 C      1.194241    3.373403    1.165814
 C      2.063945    2.672204    0.313619
 H     -2.588960    3.632491   -0.647487
 C     -5.165819    3.070741   -1.347534
 H     -0.896305    3.643185    1.721290
 C      1.696025    4.418261    1.970423
 C      3.412134    3.084874    0.222579
 C      2.350449    0.763258   -1.367122
 N     -2.405233    0.440564    0.278915
 N      0.271409    1.307412   -0.349960
 C     -3.891112   -1.416909    0.375660
 C     -5.886188    0.417768   -0.831146
 C     -6.423550    2.624443   -1.635517
 C     -6.790263    1.283489   -1.370414
 H     -6.158607   -0.605884   -0.615941
 H     -4.883247    4.099138   -1.541839
 H     -7.154967    3.303937   -2.065999
 H     -7.798766    0.947665   -1.595248
 C      3.013616    4.767113    1.901085
 C      3.877598    4.103489    1.001072
 H      4.068097    2.601722   -0.484947
 H      1.017426    4.940606    2.635046
 H      3.397630    5.573164    2.521079
 H      4.915690    4.414524    0.922371
 C     -4.200144   -2.344519   -0.607585
 C     -3.843409   -1.785902    1.710631
 C     -4.419654   -4.027356    1.087363
 C     -4.117698   -3.092594    2.067683
 C     -4.456406   -3.655029   -0.249596
 H     -4.218471   -2.049468   -1.648892
 H     -4.687571   -4.387994   -1.016329
 H     -4.629728   -5.055909    1.367356
 H     -4.091054   -3.383579    3.112970
 H     -3.590851   -1.054806    2.465632
 C      1.827928    0.460442   -2.616320
 C      3.609423    0.295091   -1.017825
 C      3.813811   -0.769328   -3.154459
 C      4.341104   -0.462932   -1.909063
 C      2.554707   -0.306154   -3.506422
 H      0.853980    0.825851   -2.895111
 H      2.138186   -0.534249   -4.482732
 H      4.389219   -1.367636   -3.855297
 H      5.322338   -0.824768   -1.626147
 H      4.020518    0.503987   -0.044644
