77

 Si     0.218285   -1.263317    0.188979
 O     -1.215663   -0.791854   -0.392831
 C     -2.011398   -1.264728   -1.423180
 C     -3.266286   -1.825278   -0.822754
 H     -1.485176   -2.074264   -1.934830
 C     -3.129491   -2.566242    0.342848
 C     -4.526377   -1.661735   -1.375221
 C     -4.232465   -3.127824    0.957641
 H     -2.147308   -2.705807    0.765216
 C     -5.637800   -2.227020   -0.765170
 H     -4.656501   -1.098258   -2.290120
 C     -5.495131   -2.957518    0.403890
 H     -4.105732   -3.705533    1.868321
 H     -6.620111   -2.093771   -1.209852
 H     -6.365545   -3.398676    0.881240
 C     -2.191710   -0.142603   -2.415386
 C     -0.884648    0.325685   -2.898127
 H     -2.778211   -0.478583   -3.277186
 H     -2.720198    0.691071   -1.960088
 C      0.191976    0.678853   -3.292770
 H      1.136150    0.988530   -3.666721
 Cl     0.548662   -2.026558    2.034566
 Cl     0.399959   -3.040820   -0.815507
 O      1.513649   -0.606870   -0.693247
 O      0.219440    0.290517    1.027432
 C      2.259124    1.410462    0.098607
 C      0.965516    1.932077   -0.319524
 C     -1.330469    1.804889    0.290784
 C      3.553626   -0.571382    0.309066
 C      4.585253    0.165268    0.946791
 C      3.213118    2.154131    0.697062
 C      4.413909    1.544524    1.147439
 C      0.758077    2.969929   -1.149895
 C     -0.555763    3.487434   -1.301888
 C     -1.594686    2.946235   -0.525972
 H      3.047023    3.212316    0.845968
 C      5.435184    2.282765    1.783135
 H      1.592350    3.424136   -1.666951
 C     -0.818340    4.577106   -2.158976
 C     -2.866586    3.560360   -0.562505
 C     -2.317875    1.142764    1.140022
 N      2.459369    0.064398   -0.062679
 N     -0.098161    1.341417    0.311392
 C      3.646224   -1.998528   -0.006641
 C      5.783876   -0.459980    1.359429
 C      6.579327    1.657786    2.188553
 C      6.758520    0.270982    1.970509
 H      5.914402   -1.517800    1.179512
 H      5.297326    3.346352    1.941188
 H      7.365105    2.228399    2.677383
 H      7.679884   -0.208525    2.289211
 C     -2.067963    5.122981   -2.213729
 C     -3.099786    4.619119   -1.390104
 H     -3.649042    3.198798    0.086605
 H     -0.011512    4.974875   -2.763850
 H     -2.267578    5.963053   -2.874043
 H     -4.080966    5.085465   -1.409628
 C      3.721761   -2.939398    1.009125
 C      3.660653   -2.386613   -1.336966
 C      3.830431   -4.674538   -0.643280
 C      3.762554   -3.727610   -1.655559
 C      3.805400   -4.281465    0.687997
 H      3.692849   -2.626678    2.045021
 H      3.853252   -5.023168    1.479289
 H      3.904866   -5.729187   -0.893535
 H      3.784118   -4.035137   -2.696219
 H      3.590297   -1.643258   -2.118493
 C     -1.960650    0.793554    2.434496
 C     -3.597691    0.862711    0.681936
 C     -4.151086   -0.108259    2.801117
 C     -4.512827    0.245355    1.509988
 C     -2.872156    0.166943    3.261942
 H     -0.970841    1.013516    2.797424
 H     -2.583640   -0.098610    4.274335
 H     -4.871078   -0.595933    3.452290
 H     -5.508895    0.029872    1.142276
 H     -3.884176    1.108700   -0.326596
