77

 Si     0.321010   -0.669991    1.862721
 O     -0.744572   -1.531845    0.990071
 C     -0.625430   -2.256352   -0.186283
 C     -1.520929   -1.632633   -1.213873
 H      0.393256   -2.191457   -0.551859
 C     -2.885183   -1.877355   -1.235828
 C     -0.979459   -0.756162   -2.141310
 C     -3.698680   -1.258711   -2.171236
 H     -3.317079   -2.571815   -0.528025
 C     -1.783347   -0.145372   -3.090104
 H      0.081276   -0.559690   -2.124853
 C     -3.146747   -0.394973   -3.106451
 H     -4.765115   -1.464425   -2.178486
 H     -1.342064    0.520646   -3.824595
 H     -3.779307    0.075767   -3.852089
 C     -0.912098   -3.705734    0.125253
 C      0.155538   -4.248133    0.981982
 H     -0.969100   -4.300492   -0.794343
 H     -1.865414   -3.788663    0.647780
 C      1.049234   -4.651127    1.674711
 H      1.828335   -5.021463    2.296518
 Cl    -0.595563   -1.077673    3.646205
 Cl     2.181703   -1.056614    2.537328
 O      0.990528   -0.280900    0.234944
 O     -0.125147    0.970272    1.888797
 C      1.396417    1.923542   -0.002217
 C     -0.050451    1.983399   -0.156522
 C     -2.106763    1.278013    0.797083
 C      3.167476    0.346327   -0.114767
 C      4.103080    1.417444   -0.217322
 C      2.240485    2.971847   -0.056509
 C      3.641624    2.741068   -0.125547
 C     -0.673140    2.527555   -1.221282
 C     -2.085902    2.454553   -1.331765
 C     -2.806558    1.802376   -0.319700
 H      1.845348    3.978456   -0.084541
 C      4.565653    3.805998   -0.181254
 H     -0.086921    2.997880   -1.998784
 C     -2.780531    3.016760   -2.422449
 C     -4.213911    1.723169   -0.401481
 C     -2.773935    0.728372    1.976410
 N      1.894354    0.643533    0.059464
 N     -0.793692    1.376337    0.819897
 C      3.521796   -1.069314   -0.246139
 C      5.480781    1.178697   -0.416906
 C      5.897438    3.550971   -0.340688
 C      6.358600    2.221218   -0.472306
 H      5.830505    0.163699   -0.533313
 H      4.200798    4.823762   -0.101198
 H      6.607748    4.372685   -0.383079
 H      7.417562    2.031348   -0.623962
 C     -4.140369    2.922758   -2.487886
 C     -4.866282    2.267663   -1.466535
 H     -4.759427    1.234741    0.393003
 H     -2.220629    3.521227   -3.201416
 H     -4.674273    3.359061   -3.328504
 H     -5.949144    2.207671   -1.530188
 C      4.512301   -1.645504    0.538604
 C      2.833118   -1.836951   -1.171889
 C      4.098976   -3.762273   -0.514760
 C      3.120453   -3.182452   -1.308653
 C      4.796915   -2.991583    0.406710
 H      5.038260   -1.052284    1.274479
 H      5.564609   -3.442851    1.028056
 H      4.322488   -4.820769   -0.615839
 H      2.579555   -3.779822   -2.036030
 H      2.075229   -1.380293   -1.787882
 C     -2.701177    1.440285    3.163599
 C     -3.493530   -0.451076    1.898342
 C     -4.083866   -0.214348    4.209509
 C     -4.144762   -0.927317    3.020210
 C     -3.364472    0.969994    4.280967
 H     -2.131588    2.358024    3.212067
 H     -3.319410    1.528792    5.210495
 H     -4.605246   -0.583799    5.088226
 H     -4.706890   -1.854278    2.966273
 H     -3.524343   -0.999416    0.970944
