77

 Si    -0.345001   -0.602813   -1.168992
 O     -0.022598   -1.442887    0.180286
 C     -0.341509   -2.695415    0.670915
 C     -1.734219   -3.076571    0.265367
 H      0.362149   -3.431629    0.273786
 C     -2.736676   -2.124144    0.344790
 C     -2.032539   -4.347064   -0.198532
 C     -4.026998   -2.428076   -0.046630
 H     -2.496793   -1.137761    0.704719
 C     -3.327159   -4.660835   -0.585896
 H     -1.251267   -5.095652   -0.267089
 C     -4.325879   -3.701457   -0.513653
 H     -4.799881   -1.670563    0.010992
 H     -3.553757   -5.658392   -0.951330
 H     -5.338435   -3.945290   -0.822144
 C     -0.212937   -2.620034    2.175977
 C      1.130998   -2.208311    2.615385
 H     -0.445076   -3.590216    2.632710
 H     -0.931590   -1.889571    2.549595
 C      2.219073   -1.875799    3.000808
 H      3.175644   -1.606208    3.372140
 Cl    -1.977015    0.107715   -2.131728
 Cl    -0.073981   -2.160805   -2.476560
 O     -0.543400    0.681842    0.073300
 O      1.073335    0.210739   -1.622413
 C      0.677882    2.501270   -0.466463
 C      1.778349    1.663538   -0.009868
 C      2.850235   -0.431794   -0.328217
 C     -1.683958    2.637926   -0.297818
 C     -1.629281    3.990926   -0.746266
 C      0.784537    3.761279   -0.929444
 C     -0.391321    4.536397   -1.125038
 C      2.610004    1.996911    0.996534
 C      3.637653    1.100786    1.392892
 C      3.772230   -0.114767    0.704683
 H      1.762445    4.185796   -1.113182
 C     -0.332797    5.858957   -1.613327
 H      2.490670    2.949282    1.494794
 C      4.537923    1.411096    2.433918
 C      4.834344   -0.987838    1.030817
 C      2.929072   -1.656062   -1.121306
 N     -0.561758    1.949003   -0.255357
 N      1.910758    0.444783   -0.620953
 C     -2.899028    1.986148    0.198936
 C     -2.787107    4.797028   -0.811894
 C     -1.470265    6.608953   -1.700960
 C     -2.710458    6.074697   -1.283465
 H     -3.731839    4.394991   -0.477937
 H      0.626273    6.267688   -1.910818
 H     -1.423329    7.627322   -2.078110
 H     -3.605335    6.688796   -1.333895
 C      5.542786    0.542607    2.750522
 C      5.699489   -0.666761    2.033883
 H      4.952207   -1.905712    0.473658
 H      4.423939    2.347476    2.968086
 H      6.238331    0.785512    3.550104
 H      6.516501   -1.338018    2.283600
 C     -4.069634    1.956863   -0.547465
 C     -2.859851    1.410827    1.460077
 C     -5.167227    0.795744    1.243192
 C     -3.995971    0.822244    1.986064
 C     -5.201184    1.357337   -0.027190
 H     -4.091447    2.380525   -1.542682
 H     -6.114605    1.330102   -0.613893
 H     -6.060187    0.333017    1.654787
 H     -3.966215    0.382673    2.978396
 H     -1.942283    1.424732    2.029225
 C      3.143624   -1.562929   -2.487163
 C      2.824742   -2.890654   -0.499904
 C      3.144427   -3.956145   -2.623475
 C      2.921637   -4.043374   -1.255397
 C      3.260913   -2.717716   -3.237816
 H      3.219386   -0.593595   -2.959010
 H      3.440046   -2.650776   -4.306279
 H      3.233554   -4.863183   -3.215105
 H      2.834075   -5.013556   -0.775954
 H      2.652558   -2.941159    0.565681
