77

 Si     0.025855   -0.757688    0.846944
 O      1.572113   -1.302681    0.767776
 C      2.173241   -2.505663    0.455735
 C      2.797753   -2.378041   -0.908676
 H      1.407366   -3.285079    0.401859
 C      4.074504   -2.815536   -1.219803
 C      2.033100   -1.785226   -1.903888
 C      4.586646   -2.646310   -2.500029
 H      4.689360   -3.293121   -0.468995
 C      2.536580   -1.605755   -3.177978
 H      1.037741   -1.455958   -1.666858
 C      3.823497   -2.034775   -3.480988
 H      5.590519   -2.995027   -2.725958
 H      1.922650   -1.136930   -3.941305
 H      4.224928   -1.899055   -4.481273
 C      3.129185   -2.875226    1.562118
 C      2.427397   -3.067301    2.840320
 H      3.652747   -3.806795    1.322246
 H      3.869223   -2.086964    1.679825
 C      1.853313   -3.242116    3.880067
 H      1.357013   -3.404138    4.806173
 Cl     0.147199   -0.180857    2.783759
 Cl    -0.915183   -2.429770    0.234309
 O      0.414308    0.329052   -0.413334
 O     -1.501956    0.158574    0.896201
 C     -0.884559    2.206989   -0.464353
 C     -1.914786    1.329133   -1.001585
 C     -3.367045   -0.421074   -0.314877
 C      1.330175    2.240598    0.393222
 C      1.202065    3.621269    0.687754
 C     -1.055145    3.521713   -0.210226
 C     -0.007152    4.270939    0.387018
 C     -2.584648    1.522861   -2.153195
 C     -3.714731    0.713744   -2.450792
 C     -4.144683   -0.221704   -1.495012
 H     -1.999642    3.992854   -0.446236
 C     -0.142983    5.644927    0.681462
 H     -2.283683    2.316836   -2.823286
 C     -4.452477    0.885951   -3.640866
 C     -5.348367   -0.926887   -1.717879
 C     -3.735408   -1.344510    0.759465
 N      0.301520    1.610353   -0.136155
 N     -2.274340    0.303949   -0.159269
 C      2.554657    1.465270    0.581415
 C      2.270788    4.350785    1.256195
 C      0.895309    6.329242    1.244809
 C      2.118333    5.676641    1.532088
 H      3.202127    3.842221    1.462649
 H     -1.078110    6.143738    0.453538
 H      0.788041    7.387329    1.470669
 H      2.937609    6.239598    1.970589
 C     -5.592228    0.164460   -3.852177
 C     -6.053028   -0.742272   -2.871137
 H     -5.713579   -1.604285   -0.960889
 H     -4.104787    1.602825   -4.376032
 H     -6.160009    0.299488   -4.769239
 H     -6.977368   -1.289302   -3.034866
 C      3.066533    1.236768    1.847515
 C      3.205327    0.992943   -0.544751
 C      4.914163    0.077113    0.856550
 C      4.396154    0.310408   -0.407295
 C      4.245007    0.530515    1.984047
 H      2.543798    1.600610    2.721960
 H      4.650864    0.346046    2.973922
 H      5.853779   -0.457342    0.964838
 H      4.921581   -0.036623   -1.288223
 H      2.793836    1.176185   -1.526088
 C     -3.733222   -0.881359    2.066578
 C     -4.066081   -2.667025    0.486708
 C     -4.399320   -3.054812    2.830064
 C     -4.394183   -3.521634    1.521046
 C     -4.069957   -1.734808    3.101214
 H     -3.460070    0.141113    2.275959
 H     -4.071684   -1.367156    4.122709
 H     -4.660641   -3.726849    3.643107
 H     -4.643520   -4.556547    1.307404
 H     -4.033329   -3.038838   -0.528314
