57

 Si    -1.738817   -0.139119    2.373172
 O     -2.215207    1.072767    1.407193
 C     -2.162465    1.450189    0.078984
 C     -2.550912    0.313708   -0.809671
 H     -1.141282    1.735385   -0.167199
 C     -3.677138   -0.428092   -0.502914
 C     -1.731718   -0.082957   -1.852513
 C     -3.972330   -1.577623   -1.211726
 H     -4.312766   -0.116898    0.313889
 C     -2.021741   -1.232432   -2.569173
 H     -0.854719    0.499848   -2.102509
 C     -3.138822   -1.987352   -2.244374
 H     -4.853799   -2.158069   -0.955627
 H     -1.374371   -1.540259   -3.385744
 H     -3.367930   -2.890381   -2.803302
 C     -3.040565    2.669154   -0.078452
 C     -2.530829    3.798009    0.718856
 H     -4.050188    2.424868    0.255155
 H     -3.092708    2.974069   -1.131207
 C     -2.095371    4.707106    1.372170
 H     -1.745019    5.532497    1.944844
 Cl    -2.711822   -1.860735    2.782328
 Cl    -2.199635    0.856745    4.095444
 O     -1.178336   -0.883266    0.831313
 O     -0.046480   -0.035134    2.671482
 C      1.025755   -1.159800    0.626492
 C      1.042825    0.296680    0.708127
 C      0.364674    2.129195    2.040657
 C     -0.415317   -3.024664    0.631260
 C      0.631088   -3.872923    0.479307
 C      2.160344   -1.984344    0.508627
 C      1.953498   -3.373618    0.426605
 C      1.541300    1.159024   -0.281698
 C      1.446334    2.546156   -0.055469
 C      0.858228    3.011574    1.142516
 H      0.767675    4.072922    1.335736
 H     -0.156235    2.355092    2.958338
 N     -0.182205   -1.687710    0.714982
 N      0.468760    0.801161    1.783048
 H     -1.457747   -3.290538    0.706441
 H      0.443198   -4.938779    0.414997
 C      2.073763    0.678228   -1.506143
 C      1.915649    3.438173   -1.052869
 C      2.432510    2.956653   -2.215110
 H      2.785860    3.643760   -2.979915
 C      2.506564    1.555526   -2.447519
 C      3.480379   -1.467076    0.506612
 C      3.077170   -4.231615    0.310753
 C      4.335445   -3.715246    0.296698
 H      5.195219   -4.374773    0.211901
 C      4.539085   -2.312608    0.403635
 H      2.912920   -5.301188    0.240726
 H      5.551841   -1.918063    0.408094
 H      3.636187   -0.402306    0.600388
 H      2.117432   -0.385771   -1.685268
 H      2.907950    1.189711   -3.388959
 H      1.844823    4.505137   -0.873410
