57

 Si    -1.398247   -0.034878    1.967094
 O     -1.826288    1.010186    0.803678
 C     -3.105537    1.375246    0.396030
 C     -3.750160    0.177719   -0.234739
 H     -3.687365    1.688605    1.267762
 C     -3.061974   -0.513157   -1.220055
 C     -4.985439   -0.283886    0.190552
 C     -3.594739   -1.662187   -1.773493
 H     -2.094724   -0.155147   -1.536331
 C     -5.529617   -1.432766   -0.366331
 H     -5.525589    0.248578    0.966030
 C     -4.834628   -2.124240   -1.346381
 H     -3.047561   -2.197910   -2.543315
 H     -6.498086   -1.789456   -0.027693
 H     -5.259152   -3.025010   -1.780891
 C     -2.966314    2.540034   -0.553673
 C     -2.409394    3.728374    0.116849
 H     -3.943742    2.807678   -0.973413
 H     -2.314173    2.250556   -1.378974
 C     -1.968668    4.690479    0.685670
 H     -1.606526    5.561028    1.178865
 Cl    -1.998573    1.064545    3.587805
 Cl    -2.327640   -1.755889    2.466450
 O     -0.679947   -0.921998    0.537009
 O      0.257338    0.296973    2.290987
 C      1.553296   -1.068175    0.560640
 C      1.458631    0.374955    0.367047
 C      0.520523    2.341214    1.284515
 C      0.244339   -3.011499    0.806946
 C      1.355915   -3.781805    0.911598
 C      2.745796   -1.800752    0.696268
 C      2.640663   -3.193166    0.871468
 C      1.966449    1.086173   -0.729928
 C      1.737065    2.475532   -0.774773
 C      1.009214    3.089262    0.268432
 H      0.818001    4.154587    0.254281
 H     -0.079650    2.681807    2.113023
 N      0.377712   -1.667135    0.648978
 N      0.760360    1.007605    1.290003
 H     -0.779869   -3.347874    0.848379
 H      1.246404   -4.852601    1.042058
 C      2.654812    0.448322   -1.795666
 C      2.228547    3.216456   -1.880491
 C      2.895931    2.588208   -2.884677
 H      3.269436    3.159138   -3.731124
 C      3.106363    1.181578   -2.844667
 C      4.022481   -1.183334    0.698631
 C      3.825498   -3.959781    1.018587
 C      5.041409   -3.350768    1.006124
 H      5.947708   -3.939265    1.123341
 C      5.139933   -1.940806    0.850782
 H      3.740902   -5.033197    1.146819
 H      6.119185   -1.469290    0.859542
 H      4.095635   -0.110802    0.592183
 H      2.806312   -0.620546   -1.765817
 H      3.630265    0.695743   -3.663621
 H      2.057477    4.286740   -1.908373
