57

 Si    -0.408575   -2.837476    0.371421
 O     -1.606380   -1.994755   -0.288658
 C     -2.944531   -1.695072   -0.148287
 C     -3.084686   -0.208916   -0.330684
 H     -3.299069   -1.994080    0.842677
 C     -2.257817    0.419724   -1.248735
 C     -4.022880    0.535549    0.367232
 C     -2.366252    1.779713   -1.476322
 H     -1.527658   -0.172227   -1.779482
 C     -4.135843    1.901191    0.143031
 H     -4.674552    0.049153    1.086124
 C     -3.311458    2.524281   -0.781330
 H     -1.718734    2.259820   -2.202888
 H     -4.877049    2.477565    0.690070
 H     -3.407641    3.590480   -0.963406
 C     -3.729933   -2.441648   -1.205296
 C     -3.571063   -3.898603   -1.080230
 H     -3.373567   -2.130533   -2.189173
 H     -4.795184   -2.190870   -1.135276
 C     -3.428445   -5.085199   -0.968554
 H     -3.308461   -6.137663   -0.869773
 Cl    -1.421471   -3.694995    1.936172
 Cl     0.453572   -4.496402   -0.380928
 O      0.504133   -1.841021   -0.887098
 O      0.539405   -1.882948    1.444247
 C      2.052654   -0.455186   -0.044751
 C      0.907633    0.186682    0.594853
 C     -0.878574   -0.203789    2.093427
 C      2.694139   -2.250978   -1.429104
 C      4.000823   -1.904646   -1.328579
 C      3.394443   -0.064211    0.136127
 C      4.388382   -0.803546   -0.530804
 C      0.550124    1.539242    0.474851
 C     -0.529955    2.007505    1.247326
 C     -1.235060    1.100256    2.067939
 H     -2.071837    1.435834    2.667423
 H     -1.348595   -0.999346    2.651615
 N      1.753664   -1.520295   -0.769353
 N      0.181266   -0.612186    1.351929
 H      2.290212   -3.082114   -1.985713
 H      4.745521   -2.491894   -1.854068
 C      1.226306    2.425115   -0.402584
 C     -0.885382    3.376695    1.171047
 C     -0.212602    4.214080    0.338209
 H     -0.490178    5.263443    0.279917
 C      0.850121    3.727755   -0.470817
 C      3.769272    1.006940    0.986078
 C      5.749032   -0.436975   -0.367696
 C      6.086512    0.604101    0.439700
 H      7.129780    0.881158    0.566704
 C      5.080854    1.330479    1.132895
 H      6.509369   -1.005759   -0.891327
 H      5.367837    2.147683    1.789528
 H      3.009167    1.552968    1.523919
 H      2.031962    2.051472   -1.017522
 H      1.363381    4.407663   -1.145779
 H     -1.706134    3.736783    1.779760
