57

 Si    -1.576209   -2.238170   -0.069762
 O     -2.545927   -1.078486    0.514563
 C     -3.569160   -0.339448   -0.075039
 C     -3.007759    0.386441   -1.263506
 H     -4.365447   -1.014938   -0.396666
 C     -1.862098    1.145301   -1.100263
 C     -3.566021    0.268531   -2.525086
 C     -1.252273    1.756702   -2.177977
 H     -1.449923    1.254178   -0.118067
 C     -2.969220    0.888582   -3.613122
 H     -4.464257   -0.321174   -2.666243
 C     -1.806994    1.625736   -3.444494
 H     -0.352170    2.344800   -2.033356
 H     -3.413146    0.787699   -4.599318
 H     -1.338097    2.105610   -4.298880
 C     -4.113982    0.610938    0.968519
 C     -4.373452   -0.069757    2.246580
 H     -5.040955    1.072285    0.606126
 H     -3.402134    1.417229    1.144635
 C     -4.549227   -0.634379    3.291770
 H     -4.731499   -1.119925    4.221581
 Cl    -1.186232   -4.105439    0.609809
 Cl    -2.661237   -2.830367   -1.701908
 O     -0.416404   -1.458125   -1.061685
 O     -0.477738   -1.752378    1.273260
 C      1.562716   -1.045994   -0.032317
 C      0.824405   -0.017127    0.695934
 C     -0.966989    0.291173    2.194938
 C      1.348934   -2.803415   -1.600044
 C      2.651263   -3.141910   -1.456321
 C      2.916301   -1.364435    0.186729
 C      3.470951   -2.430147   -0.548426
 C      1.139342    1.352753    0.723733
 C      0.367213    2.183584    1.556445
 C     -0.683115    1.610645    2.311398
 H     -1.284582    2.225450    2.971268
 H     -1.771670   -0.236206    2.678955
 N      0.849542   -1.765574   -0.875826
 N     -0.212625   -0.478352    1.371012
 H      0.618848   -3.281043   -2.237458
 H      3.052618   -3.970601   -2.028309
 C      2.165762    1.912828   -0.078106
 C      0.653286    3.571951    1.596979
 C      1.647703    4.089671    0.826411
 H      1.860824    5.155197    0.855341
 C      2.409959    3.248356   -0.028777
 C      3.709923   -0.682181    1.143843
 C      4.829218   -2.776898   -0.339322
 C      5.577349   -2.099576    0.573164
 H      6.617783   -2.370715    0.733646
 C      5.006334   -1.041945    1.331238
 H      5.254700   -3.592425   -0.913365
 H      5.613378   -0.523083    2.068391
 H      3.273449    0.114446    1.727120
 H      2.737179    1.273511   -0.735531
 H      3.189982    3.681769   -0.649311
 H      0.061580    4.208850    2.245099
