57

 Si    -1.511160   -1.534608   -1.082369
 O     -2.890631   -1.370815   -0.216628
 C     -3.927112   -0.467342   -0.150667
 C     -3.505508    0.738901    0.642013
 H     -4.203567   -0.145971   -1.159093
 C     -2.722858    0.564991    1.771302
 C     -3.854830    2.021208    0.244473
 C     -2.253802    1.658147    2.477168
 H     -2.461392   -0.436482    2.076564
 C     -3.399582    3.123570    0.956351
 H     -4.472727    2.162931   -0.636164
 C     -2.589444    2.944138    2.067904
 H     -1.630517    1.508792    3.353960
 H     -3.674875    4.124494    0.635424
 H     -2.226327    3.805084    2.622458
 C     -5.110103   -1.166232    0.480217
 C     -5.566403   -2.292717   -0.349564
 H     -5.944166   -0.467258    0.618117
 H     -4.814516   -1.540009    1.461994
 C     -5.927945   -3.202110   -1.045095
 H     -6.267938   -4.007377   -1.651329
 Cl    -2.045370   -0.651262   -2.819246
 Cl    -1.516993   -3.547707   -0.851437
 O     -0.746136   -0.490292    0.059157
 O      0.152612   -1.611063   -1.783527
 C      1.296300    0.297895   -0.549256
 C      1.765344   -1.060707   -0.301161
 C      1.545043   -3.289248   -1.027374
 C     -0.605646    1.687048   -0.611245
 C      0.126260    2.738841   -1.043952
 C      2.111837    1.338151   -1.036219
 C      1.512495    2.587838   -1.279894
 C      2.795130   -1.410581    0.590102
 C      3.202687   -2.756267    0.626530
 C      2.564842   -3.684596   -0.228355
 H      2.873414   -4.723690   -0.240798
 H      0.975193   -3.916177   -1.694761
 N      0.003388    0.493695   -0.383102
 N      1.148879   -1.986256   -1.015142
 H     -1.660666    1.683324   -0.409726
 H     -0.365153    3.688136   -1.222429
 C      3.398411   -0.466578    1.460260
 C      4.235795   -3.138955    1.519483
 C      4.808834   -2.216958    2.339077
 H      5.597506   -2.513408    3.025924
 C      4.378259   -0.862191    2.313611
 C      3.487918    1.151857   -1.325920
 C      2.308510    3.650491   -1.776616
 C      3.630042    3.454863   -2.032756
 H      4.237601    4.269824   -2.417952
 C      4.225734    2.183703   -1.811604
 H      1.842512    4.613336   -1.953909
 H      5.278564    2.039133   -2.039125
 H      3.940339    0.184603   -1.169622
 H      3.063111    0.560280    1.447837
 H      4.836399   -0.142581    2.987037
 H      4.552410   -4.175838    1.539074
