57

 Si    -0.018788   -2.950490   -0.735978
 O      1.488438   -2.502253   -0.349546
 C      2.052289   -2.237135    0.895014
 C      2.316834   -0.766563    1.001468
 H      1.351083   -2.519226    1.677798
 C      3.264423   -0.167000    0.186560
 C      1.609272    0.010487    1.904474
 C      3.527562    1.187981    0.293671
 H      3.813003   -0.770278   -0.524295
 C      1.864622    1.369020    2.014387
 H      0.864288   -0.451746    2.538515
 C      2.832261    1.958024    1.215905
 H      4.286939    1.641594   -0.335779
 H      1.316877    1.964638    2.738512
 H      3.049556    3.016461    1.314674
 C      3.293103   -3.088685    1.034229
 C      2.941480   -4.517990    1.041682
 H      3.823104   -2.845270    1.963167
 H      3.963305   -2.890800    0.197026
 C      2.623778   -5.675618    1.044583
 H      2.356555   -6.705538    1.048299
 Cl     0.502345   -4.055822   -2.373579
 Cl    -1.124667   -4.330318    0.231569
 O     -0.471231   -1.728466    0.566408
 O     -0.787997   -1.773705   -1.724048
 C     -1.803279   -0.060179   -0.119907
 C     -0.634449    0.332427   -0.899414
 C      0.943809   -0.471241   -2.466246
 C     -2.590078   -1.647728    1.433092
 C     -3.801368   -1.042381    1.488197
 C     -3.054335    0.586453   -0.150953
 C     -4.072352    0.086573    0.681534
 C     -0.013306    1.591768   -0.870231
 C      1.087467    1.801545   -1.722140
 C      1.560819    0.731100   -2.514565
 H      2.421137    0.862426   -3.159979
 H      1.212689   -1.368313   -3.003452
 N     -1.625956   -1.147929    0.612058
 N     -0.144783   -0.618445   -1.669731
 H     -2.288043   -2.529107    1.976333
 H     -4.565320   -1.447291    2.142379
 C     -0.453291    2.636136   -0.018053
 C      1.698247    3.079444   -1.751697
 C      1.240142    4.076991   -0.949935
 H      1.709975    5.056929   -0.977367
 C      0.157278    3.847279   -0.059497
 C     -3.326386    1.678632   -1.013336
 C     -5.344042    0.714872    0.671712
 C     -5.579498    1.772395   -0.150417
 H     -6.555950    2.249684   -0.160521
 C     -4.557272    2.254039   -1.012399
 H     -6.121302    0.330948    1.323076
 H     -4.768007    3.086050   -1.679236
 H     -2.555979    2.037744   -1.678996
 H     -1.271189    2.456613    0.663283
 H     -0.178776    4.648861    0.592803
 H      2.534964    3.242402   -2.421116
