57

 Si    -1.790907   -2.145058    0.178271
 O     -2.517288   -0.786781    0.630331
 C     -3.349144    0.279295    0.361263
 C     -2.604384    1.257830   -0.503682
 H     -3.555873    0.748863    1.327785
 C     -1.803625    0.792273   -1.530424
 C     -2.684429    2.623801   -0.270920
 C     -1.063563    1.670396   -2.302271
 H     -1.764629   -0.263283   -1.728628
 C     -1.958420    3.510835   -1.050276
 H     -3.318669    2.999276    0.525061
 C     -1.138241    3.034861   -2.063472
 H     -0.437488    1.286424   -3.101728
 H     -2.031310    4.578184   -0.862313
 H     -0.566137    3.728263   -2.672462
 C     -4.672414   -0.139957   -0.230295
 C     -5.352158   -1.094847    0.657976
 H     -4.523240   -0.597062   -1.206829
 H     -5.305166    0.746918   -0.358188
 C     -5.879692   -1.874267    1.402882
 H     -6.365654   -2.565431    2.049722
 Cl    -1.796634   -3.903947    1.151172
 Cl    -2.968956   -2.662766   -1.404583
 O     -0.508199   -1.842782   -0.916262
 O     -0.551956   -1.658622    1.403780
 C      1.511393   -1.357399   -0.003116
 C      0.847071   -0.150491    0.476624
 C     -0.806314    0.533151    2.000233
 C      1.108606   -3.435921   -1.051384
 C      2.387648   -3.834794   -0.829048
 C      2.835854   -1.710159    0.276339
 C      3.280425   -2.979314   -0.155219
 C      1.222112    1.167152    0.213318
 C      0.544266    2.186091    0.911999
 C     -0.454517    1.836549    1.834656
 H     -0.980418    2.571310    2.427144
 N      0.714824   -2.203948   -0.629168
 N     -0.172642   -0.421535    1.277718
 H      2.671903   -4.819572   -1.173974
 C      2.224970    1.502453   -0.737696
 C      0.905236    3.537940    0.672066
 C      1.869058    3.835844   -0.235679
 H      2.138309    4.872418   -0.422345
 C      2.533797    2.802636   -0.959391
 C      3.715861   -0.864497    1.007470
 C      4.616144   -3.369964    0.123117
 C      5.442472   -2.538233    0.809866
 H      6.464213   -2.842692    1.023655
 C      4.983578   -1.267999    1.265589
 H      4.957944   -4.341093   -0.216362
 H      5.657514   -0.626264    1.826604
 H      3.361627    0.093089    1.358479
 H      2.719690    0.714150   -1.287663
 H      3.290788    3.066885   -1.692917
 H      0.391810    4.319890    1.218781
 F      0.203010   -4.109293   -1.633822
 F     -1.678056    0.111194    2.818216
