57

 Si     1.265981   -0.802270    1.532101
 O      2.833949   -0.324690    0.715202
 C      3.940277   -0.028143    1.150479
 C      5.026327    0.426626    0.303566
 H      4.131481   -0.101970    2.226176
 C      4.809399    0.582857   -1.067104
 C      6.272288    0.712131    0.859727
 C      5.833854    1.021111   -1.877006
 H      3.830297    0.355698   -1.469131
 C      7.302140    1.150811    0.043638
 H      6.430074    0.588926    1.926951
 C      7.080750    1.303524   -1.318036
 H      5.674404    1.145841   -2.943640
 H      8.276565    1.373867    0.467715
 H      7.889536    1.648551   -1.958101
 C      0.161603   -2.693831   -1.866693
 C      0.731006   -2.529382   -0.701963
 H      0.694894   -2.449714   -2.781002
 H     -0.832839   -3.115107   -1.955398
 C      1.273541   -2.361717    0.471990
 H      1.818568   -3.220706    0.857221
 Cl     1.281990    1.081332    2.509415
 Cl     2.106966   -1.766658    3.172289
 O      0.548871   -0.044301    0.040440
 O     -0.414423   -0.917714    2.058487
 C     -1.545563    0.707204    0.396713
 C     -1.913868   -0.706790    0.381587
 C     -1.485020   -2.805876    1.363747
 C      0.233198    2.197042   -0.004255
 C     -0.575460    3.271588    0.169823
 C     -2.430780    1.768734    0.631454
 C     -1.926457    3.079256    0.522585
 C     -2.840966   -1.269334   -0.505387
 C     -3.091114   -2.652544   -0.403645
 C     -2.400609   -3.408393    0.562301
 H     -2.550431   -4.471896    0.687011
 N     -0.269816    0.940969    0.149231
 N     -1.265642   -1.466895    1.245808
 H     -0.140917    4.253144    0.042886
 C     -3.491403   -0.507213   -1.514300
 C     -4.019053   -3.251281   -1.295811
 C     -4.638080   -2.500328   -2.243750
 H     -5.345116   -2.963102   -2.927824
 C     -4.364650   -1.106906   -2.360097
 C     -3.785971    1.560451    1.003622
 C     -2.798635    4.172402    0.764277
 C     -4.093413    3.950536    1.112791
 H     -4.757071    4.790506    1.302041
 C     -4.594206    2.623616    1.240283
 H     -2.410815    5.180447    0.671919
 H     -5.628984    2.468208    1.532937
 H     -4.158520    0.551979    1.109975
 H     -3.275548    0.546816   -1.605409
 H     -4.859473   -0.527839   -3.134930
 H     -4.216271   -4.313656   -1.208386
 F      1.463502    2.234120   -0.342536
 F     -0.790346   -3.380040    2.258016
