57

 Si    -1.885879   -2.055059    1.134380
 O     -2.792353   -0.831986    0.600857
 C     -3.090169   -0.380698   -0.678577
 C     -2.413511    0.940358   -0.878525
 H     -2.703536   -1.081713   -1.414650
 C     -2.825791    2.054045   -0.163200
 C     -1.352181    1.056087   -1.761769
 C     -2.210975    3.279914   -0.355257
 H     -3.642633    1.962792    0.540216
 C     -0.727180    2.278838   -1.954643
 H     -1.022216    0.186758   -2.314208
 C     -1.164095    3.396224   -1.260102
 H     -2.556335    4.148999    0.197029
 H      0.092268    2.360904   -2.662107
 H     -0.692602    4.359779   -1.425090
 C     -4.593826   -0.329838   -0.811306
 C     -5.159096   -1.684824   -0.706715
 H     -4.881983    0.106797   -1.775332
 H     -5.007218    0.291156   -0.016061
 C     -5.585718   -2.803227   -0.616419
 H     -5.979260   -3.788766   -0.538156
 Cl    -2.945026   -2.451338    2.819328
 Cl    -1.739026   -3.941484    0.459609
 O     -0.817024   -1.517121   -0.309203
 O     -0.552247   -1.429037    1.998262
 C      1.340458   -1.238006    0.264083
 C      0.831529   -0.020223    0.881612
 C     -0.917814    0.815610    2.225220
 C      0.721001   -2.905527   -1.270859
 C      1.994717   -3.377587   -1.316962
 C      2.664363   -1.690421    0.294204
 C      2.990887   -2.805778   -0.503123
 C      1.292354    1.269145    0.609760
 C      0.635756    2.345443    1.244285
 C     -0.484891    2.090798    2.050588
 H     -1.047052    2.877122    2.533043
 N      0.407641   -1.891013   -0.417062
 N     -0.217739   -0.202332    1.663378
 H      2.195643   -4.194607   -1.996397
 C      2.363754    1.529630   -0.290518
 C      1.106041    3.665652    1.021031
 C      2.148065    3.885844    0.180036
 H      2.504165    4.898886    0.009002
 C      2.777710    2.801672   -0.499240
 C      3.656608   -1.092495    1.118022
 C      4.322369   -3.298376   -0.483626
 C      5.256424   -2.708611    0.307535
 H      6.273815   -3.091423    0.325755
 C      4.917300   -1.591866    1.125847
 H      4.573521   -4.151978   -1.103055
 H      5.676793   -1.146688    1.762947
 H      3.390683   -0.255096    1.747418
 H      2.836285    0.706745   -0.805039
 H      3.594058    3.004672   -1.187171
 H      0.611168    4.487214    1.525169
 F     -0.235509   -3.303685   -2.013757
 F     -1.932492    0.459718    2.889515
