57

 Si     1.389329   -1.425676    0.095258
 O      1.921365    0.077994   -0.126928
 C      2.964876    0.920686    0.216393
 C      4.265670    0.275661   -0.157624
 H      2.818923    1.812434   -0.407439
 C      4.288462   -0.472514   -1.327540
 C      5.421803    0.392356    0.594932
 C      5.444624   -1.109033   -1.736161
 H      3.390240   -0.555805   -1.918760
 C      6.588432   -0.240043    0.186216
 H      5.426329    0.972746    1.508213
 C      6.602344   -0.994870   -0.975378
 H      5.443761   -1.695460   -2.650089
 H      7.488990   -0.143048    0.785905
 H      7.513990   -1.494200   -1.290790
 C      2.833419    1.327082    1.663978
 C      1.463297    1.763214    1.977694
 H      3.522242    2.148008    1.893157
 H      3.073064    0.483779    2.309650
 C      0.348143    2.105628    2.262181
 H     -0.617419    2.428206    2.558460
 Cl     1.578936   -3.095000   -1.018382
 Cl     2.600904   -1.987584    1.630987
 O      0.037785   -1.311029    1.131325
 O      0.200324   -0.954682   -1.179011
 C     -1.960879   -1.026676    0.084528
 C     -1.433909    0.291025   -0.258065
 C      0.269784    1.304396   -1.525986
 C     -1.370588   -3.096972    1.057775
 C     -2.564825   -3.641164    0.706674
 C     -3.199336   -1.528368   -0.325846
 C     -3.505737   -2.867814    0.001251
 C     -1.990357    1.526786    0.076028
 C     -1.356525    2.680269   -0.430167
 C     -0.230866    2.540429   -1.260983
 H      0.268781    3.388047   -1.709193
 N     -1.109775   -1.801251    0.735254
 N     -0.326087    0.217929   -0.976485
 H     -2.742465   -4.673264    0.976389
 C     -3.120311    1.652657    0.930976
 C     -1.880800    3.955305   -0.087561
 C     -2.962517    4.052563    0.727579
 H     -3.357001    5.030306    0.993080
 C     -3.590375    2.883105    1.249523
 C     -4.121094   -0.758446   -1.089437
 C     -4.751610   -3.407597   -0.412942
 C     -5.621731   -2.647597   -1.127679
 H     -6.573539   -3.065904   -1.446223
 C     -5.299127   -1.303563   -1.477828
 H     -4.988537   -4.433153   -0.153573
 H     -6.004603   -0.720323   -2.063402
 H     -3.867931    0.255724   -1.360464
 H     -3.584098    0.762585    1.332390
 H     -4.448196    2.986860    1.908573
 H     -1.397132    4.841820   -0.481657
 F     -0.433942   -3.685615    1.681017
 F      1.245497    1.059050   -2.299794
