57

 Si    -0.902981   -1.359001   -1.757588
 O     -2.453629   -1.527139   -1.280294
 C     -3.606900   -0.780352   -1.252875
 C     -3.656862    0.039093    0.004301
 H     -3.632562   -0.107534   -2.114478
 C     -2.986974   -0.403964    1.128603
 C     -4.329603    1.250478    0.043809
 C     -2.938962    0.374805    2.271333
 H     -2.484165   -1.356378    1.094338
 C     -4.294414    2.032880    1.186868
 H     -4.866714    1.596526   -0.832146
 C     -3.588228    1.601979    2.300798
 H     -2.400434    0.019629    3.145108
 H     -4.816389    2.985485    1.205328
 H     -3.554744    2.216729    3.196057
 C     -4.774001   -1.737187   -1.346491
 C     -4.747364   -2.486591   -2.613068
 H     -5.725117   -1.196264   -1.272970
 H     -4.717486   -2.440180   -0.513407
 C     -4.708918   -3.083582   -3.654149
 H     -4.697396   -3.618069   -4.573685
 Cl    -1.176568   -0.455498   -3.536055
 Cl    -0.527045   -3.322709   -1.505571
 O     -0.652043   -0.390717   -0.364351
 O      0.852826   -0.998450   -2.034583
 C      1.343951    0.668829   -0.153114
 C      1.911897   -0.670935   -0.046201
 C      2.383170   -2.566999   -1.358153
 C     -0.616478    1.844343   -0.727300
 C      0.042484    3.030295   -0.712591
 C      2.096992    1.850974   -0.150794
 C      1.419610    3.059900   -0.419328
 C      2.682496   -1.154409    1.013097
 C      3.311469   -2.405616    0.846231
 C      3.177941   -3.079674   -0.380687
 H      3.686741   -4.009796   -0.593054
 N      0.052805    0.701041   -0.421187
 N      1.704026   -1.407778   -1.130447
 H     -0.523013    3.919640   -0.954754
 C      2.817751   -0.448685    2.241442
 C      4.090056   -2.929062    1.912544
 C      4.207458   -2.237130    3.075414
 H      4.799516   -2.643414    3.891893
 C      3.556657   -0.979108    3.245687
 C      3.503021    1.866212    0.063207
 C      2.153236    4.274580   -0.425092
 C      3.492702    4.265213   -0.197115
 H      4.052389    5.197359   -0.205559
 C      4.180136    3.040395    0.041747
 H      1.626697    5.201661   -0.621351
 H      5.254810    3.053071    0.202234
 H      4.025549    0.937822    0.235352
 H      2.311139    0.497784    2.368620
 H      3.653737   -0.451361    4.190639
 H      4.579518   -3.887412    1.780854
 F     -1.836228    1.667681   -1.015583
 F      2.244438   -3.059413   -2.521483
