57

 Si    -1.699572   -0.005914    2.484211
 O     -2.045885    1.231885    1.506408
 C     -2.976971    1.459812    0.500178
 C     -2.760906    0.405640   -0.542565
 H     -3.980590    1.356415    0.924348
 C     -1.655598    0.454717   -1.371638
 C     -3.547737   -0.732433   -0.533348
 C     -1.304731   -0.635666   -2.142051
 H     -1.054439    1.345983   -1.409038
 C     -3.208769   -1.825955   -1.307699
 H     -4.420794   -0.778656    0.104635
 C     -2.075329   -1.787231   -2.100747
 H     -0.436710   -0.585214   -2.790201
 H     -3.829981   -2.715255   -1.284381
 H     -1.805285   -2.646815   -2.707190
 C     -2.795840    2.876850    0.014192
 C     -2.783243    3.832570    1.130221
 H     -3.598745    3.138814   -0.686047
 H     -1.854658    2.968603   -0.524547
 C     -2.751990    4.599141    2.052987
 H     -2.734844    5.289927    2.862460
 Cl    -3.015293   -1.507087    2.740526
 Cl    -1.901192    0.790037    4.336222
 O     -1.191278   -0.861925    0.945630
 O      0.018642    0.189176    2.572336
 C      1.005128   -1.162978    0.616825
 C      1.020258    0.290254    0.534132
 C      0.303112    2.250753    1.634950
 C     -0.461096   -2.998373    0.701030
 C      0.572682   -3.868728    0.557576
 C      2.122200   -2.001538    0.509698
 C      1.895440   -3.392043    0.488463
 C      1.486966    1.025476   -0.558777
 C      1.334359    2.428048   -0.516749
 C      0.740545    3.024665    0.607913
 H      0.605211    4.092997    0.701831
 N     -0.212042   -1.660980    0.782123
 N      0.447489    0.901200    1.554753
 H      0.329344   -4.921409    0.508069
 C      2.041733    0.411697   -1.717237
 C      1.766062    3.200907   -1.627640
 C      2.303049    2.592258   -2.716143
 H      2.629713    3.186867   -3.565968
 C      2.438264    1.173279   -2.764376
 C      3.451743   -1.500744    0.461636
 C      3.006951   -4.269666    0.387349
 C      4.268833   -3.768812    0.331824
 H      5.119027   -4.442590    0.260134
 C      4.495470   -2.362545    0.376827
 H      2.828568   -5.338782    0.363057
 H      5.513958   -1.984588    0.348879
 H      3.620568   -0.434604    0.511329
 H      2.131426   -0.662852   -1.756781
 H      2.858812    0.706713   -3.651117
 H      1.654707    4.278483   -1.587278
 F     -1.689408   -3.320383    0.746869
 F     -0.217333    2.670596    2.701895
