57

 Si    -1.124156   -2.039252   -0.736827
 O     -1.980717   -0.691005   -0.550004
 C     -3.067908   -0.066127   -1.129220
 C     -4.121321    0.005055   -0.066056
 H     -3.418495   -0.674086   -1.968479
 C     -4.345671   -1.151634    0.668183
 C     -4.828069    1.152981    0.247985
 C     -5.249940   -1.162332    1.712174
 H     -3.799932   -2.049224    0.421127
 C     -5.743702    1.148140    1.292093
 H     -4.682674    2.061999   -0.321097
 C     -5.952268   -0.005576    2.029986
 H     -5.411036   -2.075328    2.277676
 H     -6.295565    2.054046    1.526623
 H     -6.665321   -0.007750    2.849507
 C     -2.605486    1.270567   -1.662536
 C     -1.325569    1.144166   -2.372145
 H     -2.472628    1.980183   -0.848590
 H     -3.354716    1.693346   -2.341605
 C     -0.265739    1.032081   -2.923339
 H      0.656418    0.938843   -3.441425
 Cl    -1.238539   -3.764793    0.295227
 Cl    -1.927193   -2.692369   -2.491530
 O      0.350974   -1.669621   -1.509330
 O     -0.273631   -1.426306    0.733832
 C      2.037824   -1.011799   -0.133129
 C      1.199428    0.158211    0.110281
 C     -0.850680    0.757752    1.099004
 C      2.053342   -3.138014   -1.162579
 C      3.256435   -3.436375   -0.607033
 C      3.267042   -1.259261    0.485466
 C      3.889964   -2.501588    0.233563
 C      1.531239    1.490078   -0.137108
 C      0.605634    2.472919    0.270002
 C     -0.572040    2.078399    0.927832
 H     -1.291144    2.790737    1.307310
 N      1.484795   -1.928467   -0.907758
 N      0.030484   -0.164508    0.640373
 H      3.682453   -4.405722   -0.827243
 C      2.725218    1.870888   -0.810158
 C      0.898634    3.838306    0.009627
 C      2.043467    4.179555   -0.635909
 H      2.261133    5.225067   -0.840058
 C      2.970586    3.180375   -1.056366
 C      3.873750   -0.332564    1.378871
 C      5.133370   -2.784799    0.856819
 C      5.700277   -1.877396    1.694154
 H      6.651685   -2.099241    2.171670
 C      5.057495   -0.634044    1.965339
 H      5.613698   -3.735656    0.655988
 H      5.522812    0.069527    2.650360
 H      3.379150    0.604398    1.587523
 H      3.418764    1.107496   -1.133903
 H      3.875397    3.478276   -1.579366
 H      0.190781    4.594872    0.328454
 F      1.372448   -3.891691   -1.925073
 F     -1.870558    0.298265    1.690816
