57

 Si    -1.596407   -1.327843   -1.607347
 O     -3.090858   -0.742944   -1.311680
 C     -3.891936   -0.366928   -0.245291
 C     -2.997776    0.165390    0.838896
 H     -4.527055    0.447845   -0.609227
 C     -2.278123   -0.689624    1.654854
 C     -2.724625    1.521176    0.878379
 C     -1.255041   -0.208794    2.449745
 H     -2.492800   -1.747244    1.644501
 C     -1.697724    2.010988    1.664175
 H     -3.306191    2.200197    0.270470
 C     -0.947536    1.142433    2.441496
 H     -0.696735   -0.894149    3.079778
 H     -1.488993    3.076855    1.678545
 H     -0.145605    1.524936    3.065871
 C     -4.778699   -1.515786    0.171119
 C     -5.647313   -1.934398   -0.940125
 H     -5.402984   -1.221649    1.023910
 H     -4.166474   -2.364279    0.471536
 C     -6.347741   -2.265504   -1.857158
 H     -6.981534   -2.570159   -2.655499
 Cl    -1.708816   -1.118839   -3.601170
 Cl    -1.769749   -3.124153   -0.724421
 O     -0.987296   -0.132175   -0.550138
 O      0.180978   -1.545686   -1.910909
 C      1.114413    0.590364   -0.816971
 C      1.441410   -0.694241   -0.210414
 C      1.348797   -3.012046   -0.595217
 C     -0.717230    1.805371   -1.680508
 C      0.101646    2.788530   -2.132169
 C      2.023265    1.550720   -1.275859
 C      1.494363    2.682210   -1.935011
 C      2.176790   -0.872092    0.964139
 C      2.482588   -2.192365    1.351355
 C      2.085972   -3.255994    0.520585
 H      2.342938   -4.285445    0.728926
 N     -0.176576    0.750776   -1.018433
 N      0.975062   -1.734718   -0.890202
 H     -0.350565    3.617299   -2.659651
 C      2.572690    0.218463    1.786617
 C      3.203449   -2.405258    2.555928
 C      3.573372   -1.348369    3.325194
 H      4.119480   -1.514594    4.250573
 C      3.248884   -0.015136    2.937499
 C      3.430636    1.403152   -1.140921
 C      2.388269    3.672310   -2.418828
 C      3.729731    3.517953   -2.263190
 H      4.411077    4.277807   -2.638199
 C      4.260243    2.362071   -1.621208
 H      1.981402    4.544383   -2.918036
 H      5.336869    2.252307   -1.522928
 H      3.828151    0.520664   -0.661512
 H      2.309418    1.225173    1.496582
 H      3.543594    0.813207    3.576091
 H      3.444142   -3.420948    2.848790
 F     -1.973923    1.730126   -1.820116
 F      0.996674   -3.891343   -1.443216
