57

 Si    -1.448206   -1.371636    0.036375
 O     -1.920756    0.166536    0.096921
 C     -2.918275    1.012886   -0.356360
 C     -4.253284    0.471059    0.058752
 H     -2.740106    1.959777    0.170368
 C     -4.327570   -0.149954    1.298774
 C     -5.392747    0.564108   -0.722087
 C     -5.518794   -0.684862    1.750290
 H     -3.442263   -0.213707    1.911571
 C     -6.594090    0.033638   -0.271203
 H     -5.357336    1.046858   -1.689914
 C     -6.659749   -0.595374    0.961431
 H     -5.558452   -1.172184    2.719885
 H     -7.481218    0.111135   -0.893334
 H     -7.598915   -1.014795    1.310674
 C     -2.747446    1.253317   -1.836528
 C     -1.354077    1.588634   -2.171176
 H     -3.392081    2.076033   -2.165981
 H     -3.019179    0.357674   -2.392736
 C     -0.221360    1.848053   -2.473428
 H      0.761363    2.092883   -2.787116
 Cl    -1.720072   -2.905449    1.315544
 Cl    -2.666343   -2.041509   -1.449853
 O     -0.082606   -1.422281   -0.986112
 O     -0.252915   -0.819121    1.271641
 C      1.915994   -1.111271    0.053779
 C      1.441946    0.255475    0.250492
 C     -0.230232    1.464780    1.381336
 C      1.248093   -3.246475   -0.705960
 C      2.414604   -3.799395   -0.282800
 C      3.127945   -1.617739    0.532122
 C      3.380142   -2.995684    0.351839
 C      2.054252    1.425758   -0.201135
 C      1.464917    2.650803    0.173424
 C      0.326009    2.644723    0.997972
 H     -0.140997    3.554259    1.349627
 N      1.039224   -1.914351   -0.524169
 N      0.324476    0.303237    0.956011
 H      2.550778   -4.860663   -0.439990
 C      3.197708    1.415297   -1.047265
 C      2.047108    3.860591   -0.290734
 C      3.140562    3.827830   -1.095300
 H      3.579638    4.755560   -1.453927
 C      3.723019    2.585461   -1.484536
 C      4.074498   -0.810428    1.223294
 C      4.597728   -3.539956    0.838054
 C      5.492544   -2.745573    1.481334
 H      6.422471   -3.167117    1.855398
 C      5.224254   -1.359882    1.683683
 H      4.793076   -4.596115    0.691300
 H      5.947967   -0.747784    2.215040
 H      3.862509    0.236337    1.382640
 H      3.627814    0.470027   -1.347136
 H      4.590798    2.584449   -2.138702
 H      1.597770    4.802497    0.002642
 F      0.293190   -3.858285   -1.276778
 F     -1.223330    1.341918    2.162048
