57

 Si    -1.213765   -2.086134   -0.388281
 O     -2.006247   -0.688123   -0.454691
 C     -3.053293   -0.123033   -1.156735
 C     -4.114224    0.182323   -0.143644
 H     -3.424050   -0.851296   -1.884014
 C     -4.405044   -0.817665    0.774618
 C     -4.764588    1.400079   -0.045859
 C     -5.320993   -0.604307    1.786016
 H     -3.902383   -1.769454    0.696756
 C     -5.692182    1.619574    0.964258
 H     -4.566948    2.188915   -0.759973
 C     -5.968105    0.622134    1.884948
 H     -5.533955   -1.396375    2.497762
 H     -6.199626    2.578022    1.028356
 H     -6.690255    0.795797    2.677669
 C     -2.517749    1.076108   -1.904794
 C     -1.238191    0.766653   -2.556471
 H     -2.358824    1.910279   -1.224709
 H     -3.236848    1.408445   -2.662297
 C     -0.180725    0.509374   -3.061633
 H      0.740170    0.282897   -3.539270
 Cl    -1.414834   -3.598460    0.926749
 Cl    -2.035285   -3.000030   -2.013204
 O      0.283214   -1.924337   -1.189036
 O     -0.349517   -1.263868    0.967729
 C      1.986043   -1.111705    0.081317
 C      1.201750    0.119305    0.102208
 C     -0.824930    0.974316    0.939515
 C      1.913169   -3.382902   -0.564528
 C      3.096320   -3.632591    0.054253
 C      3.196169   -1.301879    0.755263
 C      3.763659   -2.595068    0.732531
 C      1.599711    1.371794   -0.364503
 C      0.720003    2.452064   -0.146442
 C     -0.481372    2.231498    0.548722
 H     -1.169871    3.030511    0.785535
 N      1.398253   -2.123921   -0.531990
 N      0.014591   -0.052712    0.661313
 H      3.479802   -4.642903    0.011733
 C      2.815641    1.574819   -1.074489
 C      1.081250    3.737223   -0.632313
 C      2.245793    3.908336   -1.309243
 H      2.515282    4.891599   -1.687031
 C      3.126247    2.809449   -1.537773
 C      3.835696   -0.261967    1.486419
 C      4.986298   -2.820066    1.417455
 C      5.585661   -1.807153    2.096233
 H      6.520434   -1.984711    2.622623
 C      4.998336   -0.508716    2.137188
 H      5.424665   -3.811213    1.392077
 H      5.488545    0.281890    2.698805
 H      3.382402    0.717484    1.521870
 H      3.472967    0.735200   -1.252192
 H      4.048004    2.970423   -2.090407
 H      0.408805    4.569591   -0.458864
 F      1.206526   -4.226578   -1.198549
 F     -1.871606    0.671065    1.583012
