57

 Si    -1.821697   -1.900786    1.377655
 O     -2.947792   -1.061226    0.578886
 C     -3.146705   -0.775917   -0.765779
 C     -2.425445    0.493255   -1.105631
 H     -2.739195   -1.580636   -1.374692
 C     -2.740525    1.662546   -0.434729
 C     -1.419547    0.506535   -2.057926
 C     -2.077773    2.841911   -0.728927
 H     -3.517435    1.648122    0.317021
 C     -0.741550    1.679835   -2.348007
 H     -1.165120   -0.406624   -2.578431
 C     -1.076870    2.853479   -1.690192
 H     -2.350464    3.756401   -0.211584
 H      0.040107    1.679764   -3.102011
 H     -0.563473    3.778424   -1.930846
 C     -4.637139   -0.698671   -0.998197
 C     -5.267447   -2.007099   -0.758567
 H     -4.850374   -0.381967   -2.026692
 H     -5.068293    0.037423   -0.318589
 C     -5.752959   -3.086984   -0.559876
 H     -6.201033   -4.036875   -0.388908
 Cl    -2.937132   -2.184481    3.057667
 Cl    -1.263503   -3.822628    1.133824
 O     -0.808786   -1.410174   -0.066859
 O     -0.633874   -0.993200    2.218930
 C      1.312541   -1.026925    0.494107
 C      0.781296    0.244957    0.967794
 C     -0.899899    1.289366    2.262657
 C      0.780667   -2.799189   -0.967552
 C      2.071930   -3.224638   -0.931121
 C      2.646407   -1.439793    0.602293
 C      3.023223   -2.593181   -0.108840
 C      1.275992    1.478942    0.528930
 C      0.674929    2.640991    1.044566
 C     -0.412830    2.510529    1.920814
 C      3.593144   -0.764494    1.415168
 C      4.360717   -3.056973   -0.008702
 C      2.321339    1.593176   -0.425823
 C      1.160719    3.910571    0.640793
 H     -0.899516    3.389568    2.320782
 Cl    -2.218918    1.066480    3.259282
 N      0.426293   -1.753050   -0.164522
 N     -0.266456    0.184157    1.768139
 Cl    -0.384427   -3.419516   -2.005106
 H      2.358600   -4.062630   -1.552725
 C      2.175186    3.996343   -0.258150
 C      2.756015    2.819052   -0.808678
 H      2.757238    0.702534   -0.850566
 H      0.701020    4.801144    1.053503
 H      2.544578    4.969529   -0.572175
 H      3.552432    2.909517   -1.542625
 C      5.253642   -2.397404    0.775860
 C      4.863174   -1.235956    1.501053
 H      3.288266    0.107689    1.975772
 H      4.650194   -3.943460   -0.561774
 H      6.276213   -2.757089    0.858031
 H      5.590317   -0.730675    2.131275
