57

 Si     1.327911   -1.520658   -0.154212
 O      1.892452   -0.010117   -0.141664
 C      2.925296    0.756916    0.366828
 C      4.255011    0.197936   -0.052387
 H      2.794651    1.743178   -0.100203
 C      5.428067    0.477123    0.632297
 C      4.309957   -0.599398   -1.185318
 C      6.636901   -0.044409    0.194468
 H      5.411664    1.104301    1.514188
 C      5.510366   -1.125710   -1.625188
 H      3.404628   -0.813071   -1.727204
 C      6.681913   -0.850351   -0.932655
 H      7.547654    0.181115    0.742050
 H      5.529768   -1.753736   -2.510811
 H      7.627736   -1.262416   -1.272339
 C      2.759293    0.913712    1.859698
 C      1.388284    1.305780    2.221025
 H      3.444917    1.678298    2.240084
 H      2.983776   -0.027094    2.359252
 C      0.278943    1.621259    2.554419
 H     -0.682404    1.910745    2.894127
 Cl     1.515177   -3.004863   -1.504609
 Cl     2.527606   -2.323985    1.284055
 O     -0.023301   -1.529188    0.885633
 O      0.158304   -0.852983   -1.358230
 C     -1.985008   -1.003685   -0.090369
 C     -1.392214    0.319253   -0.257132
 C      0.270816    1.440585   -1.500411
 C     -1.546909   -3.224811    0.609656
 C     -2.781329   -3.607396    0.185022
 C     -3.255320   -1.349536   -0.564537
 C     -3.659976   -2.690238   -0.415676
 C     -1.896313    1.514084    0.262529
 C     -1.242280    2.701033   -0.112480
 C     -0.180577    2.634460   -1.030933
 C     -4.111610   -0.421257   -1.215872
 C     -4.937281   -3.082794   -0.894469
 C     -2.987374    1.557562    1.169845
 C     -1.698021    3.934535    0.422294
 H      0.283309    3.542899   -1.391997
 Cl     1.426885    1.288572   -2.699489
 N     -1.194198   -1.916502    0.441945
 N     -0.318830    0.310922   -1.024773
 Cl    -0.434150   -4.248485    1.322574
 H     -3.072662   -4.642361    0.306844
 C     -2.742577    3.956670    1.290905
 C     -3.395790    2.749769    1.672450
 H     -3.471389    0.637702    1.465870
 H     -1.195945    4.849303    0.128227
 H     -3.087536    4.901436    1.703598
 H     -4.223761    2.790006    2.375459
 C     -5.745825   -2.175382   -1.501861
 C     -5.323518   -0.825408   -1.671142
 H     -3.786150    0.598847   -1.352279
 H     -5.247197   -4.114327   -0.771215
 H     -6.722454   -2.478043   -1.871671
 H     -5.979384   -0.119798   -2.174214
