57

 Si    -1.612877   -0.109447    1.965152
 O     -1.726238    1.130339    0.887191
 C     -2.749989    1.476075    0.024282
 C     -3.275046    0.206857   -0.582879
 H     -3.552240    1.946688    0.602483
 C     -2.887654   -0.252106   -1.827455
 C     -4.111563   -0.578144    0.198513
 C     -3.354914   -1.467013   -2.303260
 H     -2.234378    0.343671   -2.449049
 C     -4.577879   -1.792717   -0.266087
 H     -4.412173   -0.224734    1.176035
 C     -4.202965   -2.239004   -1.525376
 H     -3.058252   -1.808477   -3.290669
 H     -5.241954   -2.387279    0.353867
 H     -4.576623   -3.186728   -1.901943
 C     -2.210783    2.476921   -0.963171
 C     -1.902401    3.763993   -0.319836
 H     -2.942843    2.663738   -1.757373
 H     -1.307387    2.079189   -1.423857
 C     -1.679384    4.819966    0.206753
 H     -1.490884    5.762374    0.663493
 Cl    -1.876711   -1.955590    2.774226
 Cl    -2.848402    0.805534    3.301224
 O     -0.982840   -0.889572    0.474476
 O     -0.027990    0.224031    2.475564
 C      1.221355   -1.067377    0.674370
 C      1.167877    0.389400    0.584761
 C      0.478492    2.349820    1.715622
 C     -0.074395   -3.018850    0.411624
 C      1.041041   -3.782654    0.577665
 C      2.397298   -1.797503    0.862751
 C      2.292306   -3.200627    0.841626
 C      1.692747    1.120225   -0.479072
 C      1.586406    2.522326   -0.412152
 C      1.003232    3.110715    0.719093
 C      3.655142   -1.179431    1.091758
 C      3.460599   -3.980231    1.051530
 C      2.289892    0.503230   -1.612135
 C      2.088570    3.300872   -1.488127
 H      0.956916    4.185859    0.809717
 Cl    -0.193731    2.956681    3.112603
 N      0.052226   -1.666745    0.541193
 N      0.559326    0.999887    1.580199
 Cl    -1.568062   -3.629716   -0.030273
 H      0.946961   -4.857134    0.491358
 C      2.651569    2.692238   -2.564087
 C      2.752891    1.271459   -2.628425
 H      2.362509   -0.573815   -1.655089
 H      2.009606    4.380507   -1.432276
 H      3.032000    3.289456   -3.389258
 H      3.205279    0.807891   -3.501147
 C      4.654523   -3.370862    1.273526
 C      4.753328   -1.949243    1.295454
 H      3.723053   -0.101127    1.114173
 H      3.378811   -5.061159    1.033193
 H      5.548148   -3.967840    1.437687
 H      5.718455   -1.484819    1.479832
