57

 Si     1.107310   -2.047567    0.278718
 O      1.929544   -0.661781    0.315261
 C      2.982008   -0.149361    1.062591
 C      4.180396   -0.119952    0.164598
 H      3.175695   -0.821555    1.901527
 C      4.522370   -1.316163   -0.454292
 C      4.916082    1.019281   -0.110456
 C      5.576710   -1.374208   -1.344897
 H      3.952360   -2.206128   -0.231724
 C      5.981321    0.966922   -1.000490
 H      4.674671    1.959320    0.367748
 C      6.310635   -0.226168   -1.622764
 H      5.830352   -2.316506   -1.821492
 H      6.554006    1.866783   -1.206241
 H      7.141928   -0.266001   -2.320942
 C      2.535248    1.179657    1.614218
 C      1.261525    1.029416    2.332951
 H      3.285965    1.584528    2.302553
 H      2.404497    1.899358    0.809187
 C      0.222249    0.873082    2.912008
 H     -0.683627    0.746449    3.451330
 Cl     1.280380   -3.567293   -1.030553
 Cl     1.956792   -2.974897    1.888546
 O     -0.350382   -1.829474    1.141461
 O      0.194660   -1.244864   -1.059173
 C     -2.070649   -0.976744   -0.037821
 C     -1.234130    0.213503   -0.146224
 C      0.706522    0.988373   -1.242942
 C     -2.102492   -3.236179    0.675088
 C     -3.334961   -3.398983    0.123156
 C     -3.328062   -1.096634   -0.641459
 C     -3.974862   -2.344308   -0.549757
 C     -1.562666    1.491550    0.310180
 C     -0.686132    2.537187   -0.030081
 C      0.418585    2.259446   -0.851800
 C     -3.937896   -0.036862   -1.365146
 C     -5.246852   -2.508893   -1.157572
 C     -2.698471    1.748843    1.121888
 C     -0.962457    3.846368    0.443916
 H      1.058099    3.062976   -1.192118
 Cl     1.940023    0.595859   -2.296216
 N     -1.512332   -2.009973    0.563661
 N     -0.108157   -0.006166   -0.800879
 Cl    -1.263422   -4.435443    1.483778
 H     -3.814153   -4.365928    0.202509
 C     -2.050637    4.072370    1.225193
 C     -2.931192    3.007432    1.571006
 H     -3.357022    0.934612    1.389449
 H     -0.289362    4.652855    0.176029
 H     -2.257537    5.074012    1.593756
 H     -3.792322    3.210860    2.202200
 C     -5.818503   -1.477220   -1.832223
 C     -5.150489   -0.224141   -1.943288
 H     -3.426522    0.909216   -1.456630
 H     -5.744387   -3.468697   -1.076712
 H     -6.791615   -1.605105   -2.300012
 H     -5.618641    0.582933   -2.500600
