57

 Si    -0.488726   -2.792994    0.424102
 O     -1.656230   -1.821560    0.969394
 C     -2.969600   -1.566745    0.599999
 C     -2.947154   -0.276757   -0.169274
 H     -3.309771   -2.359792   -0.068612
 C     -3.614302    0.870390    0.223552
 C     -2.188384   -0.252708   -1.331430
 C     -3.536752    2.024668   -0.543993
 H     -4.216288    0.871365    1.122797
 C     -2.098378    0.895251   -2.094673
 H     -1.679667   -1.150513   -1.641875
 C     -2.779552    2.040312   -1.703677
 H     -4.077919    2.913272   -0.232293
 H     -1.510583    0.891569   -3.007045
 H     -2.726112    2.940697   -2.307401
 C     -3.826697   -1.591935    1.836612
 C     -3.703053   -2.892647    2.511008
 H     -3.519298   -0.808566    2.527392
 H     -4.878025   -1.423209    1.574935
 C     -3.577457   -3.961838    3.041501
 H     -3.485707   -4.909505    3.516949
 Cl     0.473532   -4.263724    1.400647
 Cl    -1.593053   -3.961949   -0.837066
 O      0.253001   -2.037408   -0.919505
 O      0.594887   -1.697524    1.367372
 C      1.889985   -0.564646   -0.447865
 C      0.835214    0.201206    0.207728
 C     -0.511105    0.158280    2.145167
 C      2.392807   -2.638113   -1.480586
 C      3.708615   -2.299154   -1.535530
 C      3.235978   -0.177394   -0.456783
 C      4.164192   -1.071744   -1.024480
 C      0.467544    1.515124   -0.092444
 C     -0.427313    2.146952    0.788130
 C     -0.880716    1.447313    1.917853
 C      3.690688    1.040337    0.116521
 C      5.539064   -0.720441   -1.044314
 C      0.950958    2.206258   -1.233730
 C     -0.806986    3.489855    0.533355
 H     -1.517924    1.938286    2.640702
 Cl    -0.888467   -0.689339    3.533861
 N      1.527584   -1.740268   -0.924263
 N      0.293933   -0.439652    1.227730
 Cl     1.761717   -4.078583   -2.049310
 H      4.406816   -3.001542   -1.971479
 C     -0.324196    4.139928   -0.556630
 C      0.560402    3.485184   -1.459444
 H      1.617352    1.701358   -1.918673
 H     -1.486430    3.979424    1.220908
 H     -0.616831    5.168617   -0.750973
 H      0.921234    4.018843   -2.334794
 C      5.949748    0.456903   -0.504280
 C      5.011692    1.347319    0.091761
 H      2.981147    1.710515    0.576656
 H      6.247784   -1.409002   -1.490268
 H      7.003659    0.723776   -0.516928
 H      5.363146    2.276249    0.532986
