57

 Si    -1.743234   -2.212490    0.353531
 O     -2.471275   -0.802807    0.606054
 C     -3.289660    0.221287    0.176231
 C     -2.518309    1.078529   -0.785945
 H     -3.517391    0.812129    1.068882
 C     -1.717503    0.482603   -1.743272
 C     -2.580287    2.462680   -0.717862
 C     -0.963199    1.252261   -2.610206
 H     -1.691230   -0.589662   -1.812002
 C     -1.840303    3.240675   -1.594677
 H     -3.214480    2.939286    0.021758
 C     -1.022771    2.636609   -2.538340
 H     -0.338282    0.767709   -3.354024
 H     -1.902039    4.323453   -1.538209
 H     -0.440579    3.244597   -3.224163
 C     -4.599340   -0.269711   -0.389466
 C     -5.303315   -1.105131    0.595338
 H     -5.226372    0.593747   -0.643514
 H     -4.428462   -0.846620   -1.296311
 C     -5.850374   -1.784251    1.420138
 H     -6.354807   -2.389379    2.135287
 Cl    -1.842046   -3.840021    1.526726
 Cl    -2.863565   -2.901707   -1.208782
 O     -0.427058   -2.001406   -0.719332
 O     -0.549538   -1.608889    1.574782
 C      1.511987   -1.304678    0.182324
 C      0.760303   -0.109848    0.549689
 C     -0.877381    0.605489    2.088735
 C      1.308065   -3.498272   -0.691945
 C      2.613315   -3.743158   -0.399243
 C      2.854151   -1.512056    0.525521
 C      3.415289   -2.766215    0.215869
 C      1.069774    1.200220    0.176101
 C      0.359355    2.232416    0.811994
 C     -0.587546    1.901392    1.794795
 C      3.636357   -0.537080    1.200433
 C      4.769835   -3.019609    0.555102
 C      2.042514    1.507095   -0.810251
 C      0.651995    3.577785    0.470628
 H     -1.096586    2.682272    2.343441
 Cl    -1.906366    0.138174    3.320383
 N      0.807446   -2.267167   -0.379503
 N     -0.227477   -0.362942    1.389897
 Cl     0.273875   -4.599349   -1.409583
 H      3.024711   -4.714877   -0.638867
 C      1.591368    3.853252   -0.470493
 C      2.291586    2.802060   -1.126897
 H      2.564534    0.703822   -1.310660
 H      0.110816    4.372782    0.970007
 H      1.811665    4.884567   -0.734009
 H      3.028534    3.045005   -1.887812
 C      5.504561   -2.066364    1.186027
 C      4.926446   -0.808530    1.519964
 H      3.195429    0.412587    1.461375
 H      5.198927   -3.983826    0.307214
 H      6.541319   -2.262573    1.448181
 H      5.526616   -0.065865    2.038959
