57

 Si    -1.149728   -2.033547    0.173351
 O     -1.934200   -0.681209   -0.218765
 C     -2.954191   -0.342494   -1.098346
 C     -4.176265   -0.085330   -0.271260
 H     -3.139482   -1.189796   -1.762356
 C     -4.562685   -1.097675    0.598520
 C     -4.893134    1.098160   -0.293824
 C     -5.642575   -0.928889    1.443349
 H     -4.007272   -2.023807    0.609060
 C     -5.983659    1.272486    0.548659
 H     -4.617043    1.896156   -0.970275
 C     -6.357456    0.263587    1.421439
 H     -5.930834   -1.729315    2.118355
 H     -6.541071    2.204420    0.519867
 H     -7.208564    0.401465    2.082264
 C     -2.462491    0.812795   -1.931193
 C     -1.173268    0.478255   -2.553591
 H     -3.185050    1.056178   -2.718641
 H     -2.338207    1.699548   -1.313573
 C     -0.121448    0.174747   -3.044927
 H      0.796350   -0.088144   -3.509746
 Cl    -1.399226   -3.196591    1.798000
 Cl    -1.976816   -3.301136   -1.198626
 O      0.337169   -2.051817   -0.666284
 O     -0.256489   -0.953089    1.314236
 C      2.043649   -0.975267    0.336873
 C      1.235228    0.221796    0.132640
 C     -0.716614    1.268882    0.947030
 C      2.038611   -3.339506    0.178269
 C      3.250097   -3.389139    0.794521
 C      3.279853   -0.971469    0.993975
 C      3.896942   -2.216817    1.221290
 C      1.609822    1.349402   -0.600818
 C      0.750718    2.461362   -0.547729
 C     -0.384884    2.405709    0.276993
 C      3.895467    0.218243    1.467383
 C      5.146278   -2.255819    1.893567
 C      2.775399    1.386896   -1.410187
 C      1.074075    3.615756   -1.307806
 H     -1.013695    3.278121    0.395075
 Cl    -1.989870    1.159153    2.020196
 N      1.476848   -2.111221   -0.022751
 N      0.085193    0.183512    0.781059
 Cl     1.192888   -4.680592   -0.353173
 H      3.706868   -4.355770    0.961530
 C      2.190188    3.630802   -2.082213
 C      3.053202    2.498852   -2.135704
 H      3.420992    0.521165   -1.454371
 H      0.414017    4.474493   -1.261642
 H      2.433197    4.512582   -2.669865
 H      3.937478    2.531531   -2.766830
 C      5.724445   -1.104235    2.324853
 C      5.085739    0.151279    2.114387
 H      3.406173    1.168251    1.315635
 H      5.621306   -3.216285    2.058326
 H      6.680043   -1.135379    2.842527
 H      5.557979    1.058754    2.481264
