57

 Si    -1.512001   -2.384063    0.498238
 O     -2.378359   -1.023804    0.559627
 C     -3.372217   -0.458998   -0.227069
 C     -2.701573    0.593186   -1.063679
 H     -3.774327   -1.223603   -0.894523
 C     -3.014007    1.940390   -1.009324
 C     -1.699049    0.166488   -1.923698
 C     -2.343036    2.849389   -1.816103
 H     -3.795617    2.294020   -0.349742
 C     -1.019830    1.066739   -2.721672
 H     -1.466256   -0.884393   -1.973912
 C     -1.345380    2.415647   -2.673524
 H     -2.609321    3.901540   -1.774946
 H     -0.247112    0.712981   -3.396732
 H     -0.826865    3.125740   -3.309884
 C     -4.482603    0.012229    0.673003
 C     -4.999077   -1.111041    1.468828
 H     -5.300684    0.435935    0.078581
 H     -4.119860    0.783678    1.350197
 C     -5.394914   -2.046167    2.108535
 H     -5.765076   -2.867832    2.674561
 Cl    -1.413150   -3.864176    1.855360
 Cl    -2.569857   -3.382977   -0.937258
 O     -0.225407   -2.153754   -0.605151
 O     -0.414939   -1.506403    1.633074
 C      1.627326   -1.180526    0.226500
 C      0.765179   -0.023499    0.443062
 C     -0.981544    0.708124    1.850902
 C      1.644812   -3.464673   -0.406742
 C      2.960762   -3.553075   -0.075476
 C      2.974510   -1.224250    0.606885
 C      3.655113   -2.446372    0.442599
 C      0.965768    1.258040   -0.075758
 C      0.140256    2.284142    0.415155
 C     -0.810594    1.980786    1.402847
 C      3.648527   -0.113937    1.182393
 C      5.018896   -2.534465    0.825117
 C      1.944212    1.542215   -1.063441
 C      0.327173    3.604751   -0.067744
 H     -1.408329    2.768509    1.840824
 Cl    -1.982485    0.292718    3.121618
 N      1.025093   -2.260460   -0.233303
 N     -0.216349   -0.266690    1.292356
 Cl     0.734588   -4.728646   -1.015349
 H      3.465782   -4.500967   -0.207162
 C      1.277449    3.860608   -1.003416
 C      2.092052    2.812063   -1.516163
 H      2.554788    0.740343   -1.453762
 H     -0.301216    4.396848    0.321813
 H      1.418341    4.873016   -1.373274
 H      2.835446    3.036408   -2.276592
 C      5.648373   -1.454944    1.358892
 C      4.950146   -0.228080    1.546676
 H      3.116519    0.812577    1.333687
 H      5.540169   -3.475214    0.688933
 H      6.692205   -1.524631    1.655007
 H      5.467550    0.618530    1.990131
