63

 Si    -1.000828   -0.977445   -1.086793
 O     -2.479364   -0.713386   -0.443476
 C     -3.803702   -0.515898   -0.770156
 C     -4.411947    0.327586    0.313760
 H     -3.879425    0.012421   -1.725403
 C     -4.092218    0.046249    1.633769
 C     -5.257428    1.388515    0.026620
 C     -4.601820    0.820906    2.661588
 H     -3.428706   -0.779679    1.846948
 C     -5.776226    2.166412    1.053651
 H     -5.514831    1.613063   -1.003330
 C     -5.447575    1.886219    2.371526
 H     -4.343294    0.592567    3.691602
 H     -6.439210    2.995059    0.820386
 H     -5.852638    2.494901    3.175172
 C     -4.513922   -1.847873   -0.896184
 C     -4.100263   -2.593947   -2.096795
 H     -5.597542   -1.690899   -0.952212
 H     -4.300983   -2.442908   -0.007368
 C     -3.777529   -3.184361   -3.091485
 H     -3.501736   -3.713637   -3.971365
 Cl    -1.365698   -0.179358   -2.916904
 Cl    -0.938281   -2.944688   -0.629347
 O     -0.374394   -0.091662    0.244161
 O      0.706197   -0.948860   -1.657412
 C      1.702715    0.734126   -0.005924
 C      2.134194   -0.659724    0.066626
 C      2.184084   -2.664249   -1.198199
 C     -0.189708    2.173658   -0.078017
 C      0.632943    3.243935   -0.248612
 C      2.589325    1.803976   -0.212420
 C      2.033793    3.091329   -0.329471
 C      3.046531   -1.161100    1.005440
 C      3.521615   -2.469407    0.809340
 C      3.105669   -3.178124   -0.338003
 C      3.992098    1.626119   -0.346178
 C      2.896719    4.197171   -0.545027
 C      3.467867   -0.412484    2.136093
 C      4.434352   -3.015598    1.749234
 H      3.525223   -4.153393   -0.548415
 C      1.743798   -3.290221   -2.475838
 N      0.401666    0.942712    0.030148
 N      1.664369   -1.431354   -0.898988
 C     -1.671351    2.208004   -0.010036
 H      0.192765    4.228563   -0.339012
 C      4.238207    4.006759   -0.654842
 C      4.793405    2.699878   -0.561308
 H      4.412843    0.634314   -0.285089
 H      2.465522    5.188540   -0.626196
 H      4.897012    4.854882   -0.823627
 H      5.866404    2.565902   -0.668845
 C      4.332945   -0.963378    3.024684
 C      4.826784   -2.283726    2.825574
 H      4.805489   -4.022408    1.594093
 H      3.081689    0.585260    2.288528
 H      4.650659   -0.400027    3.897931
 H      5.522015   -2.705995    3.546769
 H      0.722029   -3.646873   -2.392209
 H      1.780038   -2.546390   -3.268209
 H      2.402713   -4.122451   -2.716934
 H     -2.016576    1.688678    0.875395
 H     -2.014536    3.239693    0.000972
 H     -2.081947    1.694103   -0.870379
