63

 Si    -1.395209   -0.046662   -1.555456
 O     -1.715049   -1.205529   -0.464448
 C     -2.938696   -1.729729   -0.057171
 C     -3.815168   -0.582189    0.347499
 H     -3.401499   -2.260740   -0.893852
 C     -3.411775    0.252100    1.379072
 C     -4.978220   -0.295229   -0.349393
 C     -4.167391    1.358186    1.722495
 H     -2.494135    0.036541    1.906301
 C     -5.739081    0.814620   -0.011637
 H     -5.289479   -0.934744   -1.167885
 C     -5.335911    1.641589    1.025283
 H     -3.850231    1.999725    2.539084
 H     -6.648602    1.032736   -0.563822
 H     -5.932445    2.509355    1.292635
 C     -2.669257   -2.697755    1.067976
 C     -1.887583   -3.867428    0.629220
 H     -3.614148   -3.059455    1.492224
 H     -2.121890   -2.182132    1.857641
 C     -1.270312   -4.834348    0.272644
 H     -0.751357   -5.712323   -0.028188
 Cl    -2.179690    1.766576   -1.984321
 Cl    -2.259155   -0.963342   -3.179566
 O     -0.624450    0.704149   -0.078904
 O      0.200232   -0.351286   -2.072175
 C      1.525296    1.147675   -0.462267
 C      1.642641   -0.302086   -0.339801
 C      0.903853   -2.385485   -1.207849
 C      0.048823    2.933424    0.012095
 C      1.062644    3.815845   -0.229750
 C      2.588438    2.010658   -0.747147
 C      2.335440    3.391110   -0.656286
 C      2.404833   -0.921841    0.656019
 C      2.392921   -2.328119    0.697166
 C      1.646564   -3.031276   -0.266800
 C      3.872179    1.544012   -1.137895
 C      3.384276    4.302004   -0.956066
 C      3.142138   -0.189560    1.627131
 C      3.139564   -2.992993    1.706297
 H      1.652551   -4.112404   -0.266611
 C      0.111669   -3.045308   -2.271605
 N      0.311682    1.607354   -0.200110
 N      0.914969   -1.019339   -1.174263
 C     -1.282858    3.316067    0.562598
 H      0.869158    4.870632   -0.079433
 C      4.604398    3.837248   -1.331489
 C      4.851822    2.436728   -1.426321
 H      4.051095    0.481061   -1.217466
 H      3.190283    5.366235   -0.883310
 H      5.404420    4.535104   -1.565343
 H      5.833097    2.088062   -1.737030
 C      3.840312   -0.850160    2.582993
 C      3.842189   -2.274833    2.620437
 H      3.133612   -4.076709    1.731728
 H      3.135226    0.889545    1.599154
 H      4.401940   -0.295600    3.329935
 H      4.411475   -2.785743    3.393074
 H     -0.942676   -2.921932   -2.061706
 H      0.329319   -2.586456   -3.231794
 H      0.360215   -4.103041   -2.302912
 H     -1.821475    2.430090    0.865713
 H     -1.132958    3.971521    1.422696
 H     -1.868578    3.855824   -0.179040
