63

 Si     1.039106   -0.974205    1.963925
 O      2.661427   -0.771048    1.783583
 C      3.530036   -1.216141    0.794290
 C      3.023490   -0.673477   -0.514839
 H      3.497960   -2.307662    0.751993
 C      3.279389    0.627805   -0.906040
 C      2.127525   -1.431109   -1.252853
 C      2.610847    1.188257   -1.980555
 H      4.005533    1.217774   -0.365853
 C      1.459643   -0.883462   -2.332263
 H      1.938801   -2.457204   -0.968923
 C      1.685667    0.436770   -2.689280
 H      2.820717    2.213553   -2.271844
 H      0.764680   -1.492844   -2.900203
 H      1.167079    0.872197   -3.538444
 C      4.924657   -0.791115    1.173604
 C      5.349035   -1.446205    2.421540
 H      5.635864   -1.045803    0.377888
 H      4.951462    0.288946    1.319524
 C      5.681002   -1.992459    3.437725
 H      5.995972   -2.471942    4.333730
 Cl     0.966384   -0.364108    3.879838
 Cl     0.987428   -2.954388    1.563459
 O      0.890089    0.135711    0.673234
 O     -0.756489   -0.841984    1.987848
 C     -1.136313    0.953487    0.177852
 C     -1.493180   -0.430912   -0.115613
 C     -2.051938   -2.462254    0.969725
 C      0.535020    2.342792    1.141045
 C     -0.301085    3.411508    1.048969
 C     -2.048882    2.020244    0.092256
 C     -1.605899    3.283441    0.524544
 C     -2.001474   -0.880296   -1.341621
 C     -2.529785   -2.181764   -1.385767
 C     -2.596486   -2.926297   -0.188080
 C     -3.383832    1.861092   -0.364259
 C     -2.495417    4.386929    0.456989
 C     -1.960154   -0.086673   -2.517787
 C     -3.022618   -2.679346   -2.620037
 H     -3.092490   -3.888199   -0.179740
 C     -2.161953   -3.115701    2.303964
 N      0.066501    1.143681    0.675286
 N     -1.414938   -1.247625    0.923833
 C      1.903145    2.346617    1.714407
 H      0.042171    4.373328    1.407347
 C     -3.763603    4.216665   -0.002432
 C     -4.216698    2.931861   -0.411332
 H     -3.733111    0.886213   -0.666595
 H     -2.146380    5.359965    0.783669
 H     -4.444358    5.062805   -0.050720
 H     -5.239311    2.810944   -0.758507
 C     -2.427610   -0.591299   -3.687133
 C     -2.969484   -1.906885   -3.737795
 H     -3.434383   -3.681746   -2.653685
 H     -1.531839    0.904142   -2.475321
 H     -2.385719    0.004581   -4.594820
 H     -3.341257   -2.292641   -4.683777
 H     -1.198034   -3.489097    2.631947
 H     -2.504667   -2.382021    3.030341
 H     -2.872571   -3.938091    2.245205
 H      2.610514    2.001131    0.972459
 H      2.161248    3.351726    2.039762
 H      1.949564    1.661836    2.554335
