63

 Si    -0.657290   -2.548098    0.295869
 O     -1.792406   -1.574201    0.906827
 C     -3.083398   -1.206816    0.546137
 C     -2.967543    0.063185   -0.250925
 H     -3.506481   -1.984583   -0.093983
 C     -3.510989    1.273960    0.142570
 C     -2.244508    0.003213   -1.434567
 C     -3.341025    2.408472   -0.639536
 H     -4.087075    1.345471    1.055521
 C     -2.059972    1.130408   -2.211176
 H     -1.835486   -0.942292   -1.748993
 C     -2.613468    2.340890   -1.815822
 H     -3.785740    3.347804   -0.324746
 H     -1.496482    1.061103   -3.136342
 H     -2.483990    3.227126   -2.428893
 C     -3.912615   -1.120811    1.801881
 C     -3.826107   -2.378540    2.558632
 H     -4.961538   -0.919565    1.552880
 H     -3.560845   -0.308424    2.437452
 C     -3.719146   -3.409569    3.163781
 H     -3.646630   -4.321794    3.707634
 Cl     0.227239   -4.114292    1.211382
 Cl    -1.833856   -3.632630   -0.989622
 O      0.100005   -1.815739   -1.042925
 O      0.476897   -1.551512    1.264976
 C      1.796095   -0.407542   -0.555867
 C      0.793488    0.376549    0.162533
 C     -0.484010    0.337416    2.159803
 C      2.199316   -2.458876   -1.696292
 C      3.521291   -2.150812   -1.783620
 C      3.157096   -0.061961   -0.594988
 C      4.035601   -0.957000   -1.234179
 C      0.490051    1.722740   -0.076300
 C     -0.325915    2.373314    0.864259
 C     -0.768892    1.657824    1.995936
 C      3.669939    1.114258    0.014408
 C      5.418946   -0.644836   -1.287487
 C      0.962096    2.423153   -1.216429
 C     -0.639957    3.742329    0.665367
 H     -1.340716    2.166381    2.760878
 C     -0.826111   -0.497647    3.337663
 N      1.388184   -1.551727   -1.068110
 N      0.247115   -0.265877    1.178346
 C      1.545680   -3.689911   -2.213924
 H      4.187882   -2.848050   -2.274494
 C      5.885961    0.494819   -0.712305
 C      4.998238    1.384543   -0.044927
 H      2.999031    1.784199    0.529247
 H      6.090836   -1.332854   -1.787958
 H      6.946660    0.729841   -0.752017
 H      5.392472    2.282705    0.422724
 C      0.636087    3.728683   -1.386815
 C     -0.170786    4.400222   -0.426700
 H     -1.259695    4.247694    1.396756
 H      1.567967    1.904814   -1.946036
 H      0.989029    4.269257   -2.260918
 H     -0.415031    5.448740   -0.576723
 H     -1.485911   -1.300261    3.044770
 H      0.084612   -0.935935    3.740442
 H     -1.298941    0.116013    4.101717
 H      0.731494   -3.423521   -2.883070
 H      2.277395   -4.299255   -2.739944
 H      1.125848   -4.252197   -1.383757
