63

 Si    -0.077681   -2.309553    1.262060
 O     -0.529023   -1.741278   -0.148280
 C     -1.462580   -2.160255   -1.106105
 C     -2.376191   -1.012255   -1.387035
 H     -2.044929   -2.977533   -0.675854
 C     -1.918330    0.101575   -2.072244
 C     -3.688576   -1.043392   -0.939478
 C     -2.758853    1.175421   -2.304319
 H     -0.899372    0.129454   -2.420183
 C     -4.529546    0.036767   -1.150940
 H     -4.063633   -1.915102   -0.420583
 C     -4.066207    1.149174   -1.836761
 H     -2.391849    2.034921   -2.854593
 H     -5.551596    0.003430   -0.785076
 H     -4.727043    1.993111   -2.014494
 C     -0.702593   -2.664693   -2.302858
 C      0.102884   -3.838735   -1.937932
 H     -1.397419   -2.942335   -3.104033
 H     -0.048709   -1.876566   -2.662628
 C      0.746867   -4.792871   -1.598744
 H      1.315897   -5.643975   -1.309340
 Cl    -1.101084   -3.800965    2.060182
 Cl     1.838599   -2.812364    1.367915
 O      1.030302   -0.022413   -1.538312
 O     -0.220748   -0.866844    2.110568
 C      1.572194    0.359316    0.594618
 C      0.226911    0.887419    0.713931
 C     -1.937116    0.567956    1.566122
 C      3.115581   -0.608341   -0.867724
 C      4.061296   -0.630292    0.094408
 C      2.506990    0.346374    1.653973
 C      3.790984   -0.146537    1.392906
 C     -0.181345    2.084799    0.093688
 C     -1.506118    2.518316    0.264734
 C     -2.388179    1.706175    1.014116
 C      2.186926    0.808889    2.943946
 C      4.754106   -0.173424    2.427459
 C      0.718418    2.856040   -0.671141
 C     -1.921434    3.726729   -0.328686
 H     -3.426009    1.977136    1.138529
 C     -2.802567   -0.430875    2.278116
 N      1.854727   -0.088019   -0.631977
 N     -0.633410    0.194819    1.422622
 C      3.305627   -1.139451   -2.263821
 H      5.033563   -1.035933   -0.150208
 F      4.512344   -1.664376   -2.372299
 F      3.180151   -0.161656   -3.131902
 F      2.408379   -2.066697   -2.498283
 F     -2.381282   -0.606921    3.502099
 F     -2.699409   -1.553104    1.608699
 F     -4.049266   -0.032388    2.276653
 C      4.429910    0.274777    3.673216
 C      3.128953    0.769226    3.929741
 H      1.196419    1.180951    3.152428
 H      5.745591   -0.556419    2.211583
 H      5.164721    0.254738    4.472773
 H      2.878549    1.122669    4.926922
 C      0.294615    4.015218   -1.246148
 C     -1.038665    4.457012   -1.070457
 H     -2.943607    4.058925   -0.189678
 H      1.735781    2.522193   -0.795471
 H      0.984109    4.612008   -1.837134
 H     -1.357022    5.390025   -1.529285
