63

 Si    -0.274526   -2.680858    0.349292
 O     -1.610636   -1.789496    0.249000
 C     -2.698932   -1.718480   -0.598056
 C     -2.501703   -0.482694   -1.427452
 H     -2.690035   -2.583329   -1.264518
 C     -3.400550    0.567519   -1.481729
 C     -1.327820   -0.408934   -2.165100
 C     -3.135660    1.675856   -2.275427
 H     -4.323858    0.527011   -0.918533
 C     -1.054245    0.694307   -2.949515
 H     -0.637372   -1.235024   -2.129214
 C     -1.963509    1.742609   -3.009627
 H     -3.855687    2.487657   -2.320553
 H     -0.137344    0.730348   -3.529551
 H     -1.760832    2.606416   -3.635088
 C     -3.952970   -1.777958    0.230007
 C     -4.019579   -3.051111    0.955962
 H     -4.835914   -1.690905   -0.413463
 H     -3.980199   -0.958677    0.943549
 C     -4.044342   -4.099831    1.537623
 H     -4.084921   -5.029532    2.053638
 Cl     0.148813   -4.019920    1.774651
 Cl    -0.623305   -3.963190   -1.189781
 O      0.899335   -1.891620   -0.621443
 O      0.233552   -1.448901    1.562749
 C      1.899285   -0.060152    0.268912
 C      0.561183    0.481347    0.474539
 C     -1.375953    0.142676    1.743237
 C      3.153854   -1.913922   -0.430404
 C      4.316476   -1.327232   -0.086146
 C      3.073792    0.603782    0.695528
 C      4.307354   -0.044952    0.508687
 C      0.086803    1.721775    0.004285
 C     -1.170058    2.150355    0.459526
 C     -1.879397    1.336245    1.369919
 C      3.039455    1.860884    1.341348
 C      5.498260    0.586096    0.933740
 C      0.822043    2.523682   -0.896834
 C     -1.665980    3.403911    0.034455
 H     -2.813346    1.671147    1.797609
 C     -1.913991   -0.690258    2.884530
 N      1.968236   -1.276483   -0.220285
 N     -0.185583   -0.269868    1.247795
 C      3.032180   -3.272550   -1.081403
 H      5.243943   -1.853774   -0.262937
 F      4.233966   -3.785699   -1.231813
 F      2.463768   -3.126851   -2.247946
 F      2.317420   -4.034872   -0.303838
 F     -1.074350   -0.518206    3.882857
 F     -2.000123   -1.943691    2.597857
 F     -3.104982   -0.229397    3.207828
 C      5.445011    1.806296    1.539284
 C      4.198625    2.445800    1.752221
 H      2.093545    2.348084    1.518996
 H      6.444773    0.080755    0.776623
 H      6.359611    2.291113    1.871212
 H      4.170148    3.409759    2.253719
 C      0.318340    3.721877   -1.298921
 C     -0.936746    4.173006   -0.820300
 H     -2.631091    3.736139    0.399126
 H      1.774793    2.175321   -1.268610
 H      0.879639    4.339961   -1.994839
 H     -1.318663    5.136636   -1.146980
