63

 Si     1.216990   -2.304920   -0.657756
 O      2.107482   -1.003733   -0.376184
 C      3.065410   -0.320744    0.327274
 C      2.386417    0.388815    1.462170
 H      3.478958    0.425947   -0.356742
 C      1.369912   -0.251196    2.149355
 C      2.731126    1.686349    1.808642
 C      0.685147    0.399296    3.159256
 H      1.118684   -1.263498    1.889148
 C      2.057264    2.340235    2.829207
 H      3.533516    2.191932    1.282272
 C      1.027210    1.700610    3.502027
 H     -0.110978   -0.115941    3.688324
 H      2.338785    3.354062    3.098131
 H      0.497233    2.212259    4.300110
 C      4.205582   -1.206524    0.759197
 C      4.785536   -1.880396   -0.410975
 H      4.975500   -0.596562    1.246953
 H      3.857168   -1.951884    1.471598
 C      5.225538   -2.412840   -1.392024
 H      5.629841   -2.895115   -2.249717
 Cl     1.418207   -3.542543   -2.215400
 Cl     1.913294   -3.530457    0.805769
 O     -0.197720   -2.084605    0.286388
 O      0.329510   -1.233916   -1.808751
 C     -1.728658   -0.594049   -0.463390
 C     -0.638282    0.367415   -0.570083
 C      1.267793    0.831431   -1.844705
 C     -2.304983   -2.829668   -0.047901
 C     -3.594104   -2.617400   -0.375611
 C     -3.055595   -0.301363   -0.860554
 C     -4.007116   -1.335596   -0.805796
 C     -0.592838    1.639881    0.033103
 C      0.430608    2.513528   -0.366425
 C      1.341649    2.085988   -1.357705
 C     -3.437181    0.969086   -1.348927
 C     -5.338980   -1.079425   -1.203263
 C     -1.517270    2.041281    1.022489
 C      0.499842    3.803130    0.208562
 H      2.098984    2.755918   -1.739536
 C      2.088105    0.297997   -2.998007
 N     -1.398744   -1.815303   -0.115309
 N      0.307876   -0.012433   -1.396281
 C     -1.736180   -4.146208    0.428376
 H     -4.294810   -3.438522   -0.315220
 F     -2.686683   -5.054597    0.419541
 F     -1.281425   -3.990371    1.641973
 F     -0.781058   -4.492974   -0.388485
 F      2.770746   -0.748259   -2.659986
 F      2.909589    1.247991   -3.397415
 F      1.245769   -0.001074   -3.957554
 C     -5.690676    0.158009   -1.654207
 C     -4.724267    1.190963   -1.735012
 H     -2.705149    1.757548   -1.425390
 H     -6.065895   -1.882340   -1.149708
 H     -6.713706    0.355610   -1.964086
 H     -5.014404    2.167319   -2.114601
 C     -1.420546    3.282336    1.571754
 C     -0.405313    4.178345    1.154108
 H      1.285466    4.478167   -0.111397
 H     -2.284653    1.353856    1.348139
 H     -2.124478    3.591398    2.339980
 H     -0.349041    5.167756    1.600253
