63

 Si    -0.286406   -1.805215    1.980202
 O     -1.448925   -2.523913    1.157882
 C     -2.373522   -2.680195    0.146173
 C     -2.676140   -1.367197   -0.521181
 H     -3.288301   -3.033444    0.634217
 C     -1.777107   -0.768401   -1.386895
 C     -3.883948   -0.736086   -0.268755
 C     -2.062030    0.451954   -1.969838
 H     -0.852983   -1.261524   -1.615148
 C     -4.179075    0.487803   -0.845719
 H     -4.603577   -1.199203    0.393430
 C     -3.266193    1.086604   -1.698780
 H     -1.348230    0.901199   -2.652193
 H     -5.126640    0.970425   -0.627299
 H     -3.498762    2.040187   -2.162958
 C     -1.910719   -3.735273   -0.824717
 C     -1.556289   -4.977439   -0.129513
 H     -2.707139   -3.942791   -1.549913
 H     -1.050105   -3.379763   -1.375141
 C     -1.256929   -5.981120    0.455888
 H     -0.999432   -6.884159    0.956325
 Cl    -1.057147   -2.138976    3.827529
 Cl     1.554518   -2.513918    2.409022
 O      0.208566   -1.302091    0.314275
 O     -0.234053   -0.115620    2.252052
 C      1.678680    0.388113    0.464065
 C      0.490326    1.227043    0.566654
 C     -1.675785    1.419176    1.438379
 C      2.334422   -1.730213   -0.297476
 C      3.635642   -1.381304   -0.314535
 C      3.023740    0.808795    0.544929
 C      4.021987   -0.108702    0.172213
 C      0.265035    2.332882   -0.289140
 C     -0.964782    3.005381   -0.194298
 C     -1.941134    2.510316    0.697818
 C      3.383355    2.086799    1.027018
 C      5.379352    0.275919    0.264207
 C      1.208018    2.749100   -1.256632
 C     -1.222364    4.114172   -1.030766
 H     -2.910604    2.979132    0.780900
 C     -2.647643    0.766976    2.389338
 N      1.398746   -0.858190    0.161595
 N     -0.459801    0.811544    1.371486
 C      1.732425   -2.957969   -0.936008
 H      4.367050   -2.078764   -0.698474
 F      2.690908   -3.734115   -1.382353
 F      1.008680   -2.513311   -1.949008
 F      0.961018   -3.609864   -0.127519
 F     -2.237488    0.948169    3.612450
 F     -2.685135   -0.499005    2.094765
 F     -3.836180    1.298280    2.224310
 C      5.709468    1.513723    0.730916
 C      4.698823    2.427244    1.122266
 H      2.611876    2.777202    1.338502
 H      6.146497   -0.430816   -0.032574
 H      6.753607    1.805098    0.810477
 H      4.979707    3.404841    1.505566
 C      0.934347    3.812345   -2.062352
 C     -0.291303    4.512236   -1.942832
 H     -2.171977    4.629464   -0.939885
 H      2.140352    2.218228   -1.363760
 H      1.660356    4.126476   -2.807861
 H     -0.489652    5.361754   -2.591323
