63

 Si    -1.196380   -0.417309   -1.738251
 O     -2.405835   -0.790929   -0.755992
 C     -2.861390   -0.535344    0.520066
 C     -4.270118   -0.051775    0.428407
 H     -2.267574    0.228015    0.992358
 C     -5.116949   -0.606270   -0.516642
 C     -4.728362    0.960522    1.257415
 C     -6.418316   -0.149554   -0.640924
 H     -4.743942   -1.386811   -1.164639
 C     -6.032129    1.418290    1.140441
 H     -4.068251    1.394127    1.998740
 C     -6.878340    0.864819    0.190216
 H     -7.075122   -0.585614   -1.387968
 H     -6.387186    2.211328    1.792482
 H     -7.899285    1.224229    0.095967
 C     -2.706775   -1.790514    1.343658
 C     -1.318875   -1.945816    1.806193
 H     -3.340056   -1.743701    2.236958
 H     -3.012973   -2.653623    0.756320
 C     -0.197445   -2.014199    2.230020
 H      0.768340   -2.092565    2.657932
 Cl    -0.983053    1.301397   -2.768327
 Cl    -1.897955   -1.525598   -3.287600
 O     -0.461348    0.229490   -0.226849
 O      0.325314   -1.199609   -1.851364
 C      1.674377    0.779028   -0.657222
 C      1.952539   -0.623525   -0.367903
 C      1.150307   -2.821363   -0.523469
 C      0.046069    2.424514   -0.267201
 C      0.897473    3.418124   -0.589005
 C      2.599765    1.755558   -1.083811
 C      2.191797    3.100841   -1.065498
 C      2.931826   -1.029616    0.573469
 C      3.029060   -2.397719    0.882769
 C      2.090600   -3.290271    0.316559
 C      3.882430    1.414022   -1.567780
 C      3.090914    4.099785   -1.505357
 C      3.780075   -0.111272    1.233658
 C      4.002626   -2.838836    1.807445
 H      2.087646   -4.339243    0.578242
 C      0.012249   -3.634524   -1.090171
 N      0.438866    1.127498   -0.372958
 N      1.127249   -1.507527   -0.879529
 C     -1.318355    2.592654    0.359418
 H      0.575811    4.445231   -0.488427
 F     -1.255522    2.025427    1.545969
 F     -2.248879    2.018899   -0.338121
 F     -1.578143    3.873128    0.490847
 F      0.175298   -3.779850   -2.373076
 F     -1.086925   -2.977938   -0.831860
 F     -0.020263   -4.806098   -0.499854
 C      4.326268    3.753326   -1.965585
 C      4.722806    2.392700   -2.004299
 H      4.178363    0.375142   -1.610214
 H      2.776202    5.137251   -1.479298
 H      5.013379    4.520635   -2.312833
 H      5.704778    2.131875   -2.390626
 C      4.705764   -0.556770    2.127986
 C      4.828908   -1.938841    2.411835
 H      4.070643   -3.897895    2.030749
 H      3.688146    0.944613    1.036755
 H      5.353536    0.154234    2.634397
 H      5.576322   -2.276187    3.125381
