75

 Si    -1.227204   -0.546749   -1.661791
 O     -1.580300   -1.641678   -0.505741
 C     -1.969048   -1.530192    0.814919
 C     -3.114748   -0.566910    0.933991
 H     -1.142114   -1.159309    1.422827
 C     -3.945859   -0.355070   -0.151265
 C     -3.347900    0.120805    2.115068
 C     -4.990576    0.549615   -0.073658
 H     -3.776390   -0.903446   -1.064720
 C     -4.399602    1.018928    2.204423
 H     -2.704636   -0.045958    2.971994
 C     -5.219980    1.241468    1.107095
 H     -5.628649    0.708047   -0.937955
 H     -4.578272    1.549266    3.135660
 H     -6.043217    1.946892    1.175279
 C     -2.353037   -2.911878    1.303926
 C     -1.181479   -3.750414    1.617225
 H     -2.953573   -2.839479    2.218042
 H     -2.958128   -3.394967    0.535186
 C     -0.236869   -4.424735    1.928350
 H      0.573402   -5.049473    2.215650
 Cl    -1.956756    1.119893   -2.553669
 Cl    -1.905237   -1.791918   -3.146748
 O     -0.745238    0.444547   -0.246441
 O      0.420194   -0.710235   -2.023621
 C      1.333668    1.173376   -0.548078
 C      1.666368   -0.211998   -0.223763
 C      1.349529   -2.482443   -0.851143
 C     -0.439177    2.736231   -0.399990
 C      0.432410    3.734763   -0.711917
 C      2.264735    2.159452   -0.891359
 C      1.785631    3.475738   -1.011546
 C      2.424251   -0.565144    0.898237
 C      2.637865   -1.936386    1.122960
 C      2.105373   -2.868205    0.210873
 C      3.631798    1.869290   -1.142831
 C      2.693379    4.502784   -1.383709
 C      2.938724    0.394456    1.812263
 C      3.386702   -2.337432    2.260879
 H      2.291041   -3.920965    0.356212
 C      0.768184   -3.371716   -1.899539
 N      0.051511    1.461256   -0.415357
 N      1.142058   -1.139562   -1.000090
 C     -1.838897    2.920250    0.100148
 H      0.069912    4.752644   -0.715134
 C      3.997853    4.206469   -1.624169
 C      4.474680    2.869465   -1.503373
 H      3.984394    0.850863   -1.059155
 H      2.326163    5.518820   -1.474456
 H      4.690104    4.993007   -1.913699
 H      5.520432    2.655363   -1.706870
 C      3.874898   -1.404880    3.120053
 C      3.644395   -0.017172    2.894505
 H      2.757772    1.445067    1.641047
 H      3.555570   -3.394700    2.429576
 H      4.445125   -1.714029    3.992521
 H      4.036864    0.710754    3.599411
 H     -2.340071    1.963701   -0.014323
 C     -1.761365    3.254089    1.587409
 C     -2.600461    3.979700   -0.680228
 H     -2.762354    3.355771    2.001824
 H     -1.248745    2.469815    2.142311
 H     -1.234120    4.193406    1.753071
 H     -3.632502    4.018543   -0.332343
 H     -2.168066    4.969400   -0.539303
 H     -2.613121    3.755153   -1.745328
 C      0.716612   -4.829641   -1.478786
 H     -0.250114   -3.019036   -2.047923
 C      1.548850   -3.187870   -3.196515
 H      0.169650   -4.956079   -0.547118
 H      0.202842   -5.403147   -2.250199
 H      1.712835   -5.254997   -1.363381
 H      2.575915   -3.535437   -3.085800
 H      1.083171   -3.767093   -3.992346
 H      1.562943   -2.148743   -3.507558
