75

 Si    -1.232656   -0.409273   -1.307316
 O     -1.453705   -1.355094   -0.005439
 C     -2.558594   -2.018840    0.509702
 C     -3.773865   -1.162542    0.304697
 H     -2.687013   -2.972550   -0.011714
 C     -3.728775    0.159760    0.720062
 C     -4.910634   -1.644675   -0.321840
 C     -4.806064    0.999855    0.509789
 H     -2.836194    0.525995    1.201331
 C     -5.997042   -0.807276   -0.532961
 H     -4.948147   -2.674688   -0.658326
 C     -5.946372    0.514958   -0.119299
 H     -4.761829    2.033315    0.838174
 H     -6.884534   -1.190901   -1.028008
 H     -6.796527    1.170238   -0.286308
 C     -2.296467   -2.264650    1.977166
 C     -1.127905   -3.125413    2.228996
 H     -3.170653   -2.735502    2.444131
 H     -2.128792   -1.304683    2.466482
 C     -0.191158   -3.835857    2.475823
 H      0.612461   -4.485355    2.722857
 Cl    -2.017443    1.223943   -2.214774
 Cl    -2.058400   -1.711143   -2.670198
 O     -0.581787    0.670469   -0.003852
 O      0.376851   -0.670422   -1.777148
 C      1.506578    1.255090   -0.513526
 C      1.793481   -0.122809   -0.121928
 C      1.321523   -2.408491   -0.564064
 C     -0.154335    2.930720   -0.318803
 C      0.745302    3.855923   -0.750021
 C      2.462627    2.162815   -0.986889
 C      2.053175    3.497822   -1.141916
 C      2.630425   -0.441704    0.953129
 C      2.804730   -1.804658    1.249255
 C      2.153067   -2.763684    0.450744
 C      3.784344    1.775217   -1.328893
 C      2.984419    4.445901   -1.641196
 C      3.266249    0.546611    1.753207
 C      3.636699   -2.170214    2.340487
 H      2.308002   -3.813354    0.646845
 C      0.617100   -3.335699   -1.497718
 N      0.257183    1.625101   -0.302884
 N      1.161539   -1.069573   -0.786719
 C     -1.503971    3.208218    0.267550
 H      0.445989    4.893312   -0.783212
 C      4.245761    4.056932   -1.967500
 C      4.651804    2.701290   -1.810874
 H      4.082592    0.742296   -1.217218
 H      2.670355    5.476810   -1.759581
 H      4.956282    4.783065   -2.354212
 H      5.662646    2.411676   -2.085025
 C      4.240396   -1.210980    3.089594
 C      4.048668    0.169485    2.794347
 H      3.115813    1.592022    1.529840
 H      3.776286   -3.221931    2.562276
 H      4.875244   -1.492472    3.926069
 H      4.533781    0.920068    3.412473
 H     -2.146300    2.383384   -0.030046
 C     -1.372717    3.186346    1.787720
 C     -2.109615    4.506098   -0.242024
 H     -2.347047    3.335349    2.252772
 H     -0.981172    2.230703    2.130773
 H     -0.713078    3.978952    2.140356
 H     -3.122758    4.612941    0.146499
 H     -1.540845    5.375354    0.085722
 H     -2.166531    4.517769   -1.330528
 C      0.488140   -4.744382   -0.945922
 H     -0.379053   -2.921200   -1.623747
 C      1.326548   -3.314038   -2.847045
 H      0.001084   -4.747308    0.027360
 H     -0.118852   -5.339797   -1.628228
 H      1.455637   -5.236488   -0.855332
 H      2.335456   -3.718348   -2.765586
 H      0.777900   -3.923991   -3.563385
 H      1.384695   -2.305820   -3.245026
