75

 Si     0.023750   -1.935186    1.541554
 O     -1.377691   -2.185618    0.770626
 C     -1.728849   -2.327784   -0.565809
 C     -2.341182   -1.043663   -1.036727
 H     -0.842182   -2.522617   -1.163158
 C     -3.556671   -0.620204   -0.523385
 C     -1.683832   -0.249648   -1.963166
 C     -4.122449    0.571758   -0.944365
 H     -4.066390   -1.233977    0.206640
 C     -2.245507    0.941928   -2.393972
 H     -0.731596   -0.571686   -2.360392
 C     -3.469939    1.352226   -1.889383
 H     -5.081088    0.886807   -0.542541
 H     -1.727929    1.547538   -3.130743
 H     -3.919666    2.278324   -2.233892
 C     -2.641464   -3.526964   -0.673844
 C     -1.905133   -4.753630   -0.324230
 H     -3.036659   -3.624230   -1.692439
 H     -3.482300   -3.407505    0.010019
 C     -1.269914   -5.730480   -0.034594
 H     -0.726436   -6.608931    0.220596
 Cl    -0.689942   -2.603275    3.345297
 Cl     1.717467   -3.036367    1.603064
 O      0.522579   -1.222552   -0.046186
 O      0.217651   -0.347984    2.129800
 C      1.746313    0.613437    0.276412
 C      0.448249    1.228465    0.538740
 C     -1.565549    1.077874    1.790442
 C      2.721429   -1.284446   -0.753144
 C      3.931756   -0.664077   -0.727339
 C      2.977346    1.277728    0.363361
 C      4.106841    0.600644   -0.126700
 C     -0.023992    2.326968   -0.192609
 C     -1.298820    2.818207    0.133496
 C     -2.040601    2.171807    1.139975
 C      3.113687    2.564787    0.946184
 C      5.375817    1.231190   -0.038980
 C      0.713524    2.923903   -1.250381
 C     -1.807609    3.939901   -0.571206
 H     -3.019584    2.543530    1.400632
 C     -2.253374    0.337637    2.890978
 N      1.675175   -0.631488   -0.159543
 N     -0.313149    0.647227    1.445082
 C      2.395009   -2.553431   -1.480067
 H      4.776629   -1.159587   -1.183138
 C      5.488035    2.464188    0.522637
 C      4.340387    3.139974    1.026156
 H      2.240962    3.067738    1.337896
 H      6.246794    0.710778   -0.421062
 H      6.461199    2.943169    0.594462
 H      4.454545    4.120071    1.481371
 C     -1.079726    4.507197   -1.567532
 C      0.196642    3.983678   -1.919879
 H      1.679265    2.525314   -1.520387
 H     -2.785112    4.324219   -0.304663
 H     -1.472073    5.363745   -2.109933
 H      0.755767    4.440299   -2.732146
 H      1.538250   -2.989729   -0.972270
 C      1.980352   -2.195977   -2.904757
 C      3.542433   -3.550900   -1.451165
 H      1.674700   -3.092788   -3.443821
 H      1.140355   -1.503601   -2.907660
 H      2.802928   -1.739924   -3.454973
 H      3.224879   -4.486922   -1.911221
 H      4.405652   -3.188406   -2.007668
 H      3.852640   -3.767687   -0.429716
 C     -3.751737    0.588786    2.921851
 H     -2.078425   -0.719054    2.693997
 C     -1.602685    0.706496    4.219696
 H     -4.218463    0.372651    1.963188
 H     -4.205793   -0.061561    3.669513
 H     -3.984243    1.616668    3.196924
 H     -1.767630    1.758456    4.452375
 H     -2.037728    0.112991    5.022012
 H     -0.535891    0.513576    4.205806
