75

 Si    -0.988894   -1.747738    1.445486
 O     -2.250708   -1.386426    0.497382
 C     -2.451027   -1.385215   -0.877101
 C     -2.410200    0.031933   -1.361952
 H     -1.655205   -1.937756   -1.369079
 C     -3.394348    0.929304   -0.979372
 C     -1.371114    0.469184   -2.168219
 C     -3.356414    2.243768   -1.413899
 H     -4.200359    0.591748   -0.342288
 C     -1.328796    1.781391   -2.612497
 H     -0.595352   -0.224513   -2.460530
 C     -2.325517    2.670423   -2.240511
 H     -4.140081    2.934493   -1.116417
 H     -0.518467    2.107417   -3.256376
 H     -2.303167    3.695881   -2.596343
 C     -3.754685   -2.098381   -1.150503
 C     -3.643818   -3.514695   -0.762214
 H     -4.015549   -2.037636   -2.214202
 H     -4.554145   -1.630945   -0.574846
 C     -3.511285   -4.662623   -0.436186
 H     -3.416675   -5.683399   -0.151261
 Cl    -2.148349   -2.030233    3.114437
 Cl     0.062399   -3.459153    1.671118
 O     -0.033820   -1.334361   -0.036046
 O     -0.225822   -0.382631    2.121446
 C      1.790536   -0.176856    0.513549
 C      0.844946    0.928910    0.637286
 C     -1.188269    1.656660    1.627681
 C      2.009943   -2.323750   -0.464226
 C      3.353407   -2.269513   -0.257542
 C      3.162992   -0.089325    0.783146
 C      3.959631   -1.186107    0.413042
 C      0.974974    2.114709   -0.098511
 C     -0.006781    3.101244    0.090515
 C     -1.073524    2.840325    0.970879
 C      3.746873    1.030923    1.430458
 C      5.351972   -1.145814    0.687807
 C      2.024866    2.332524   -1.030993
 C      0.096799    4.323876   -0.622368
 H     -1.832002    3.592359    1.124545
 C     -2.258477    1.288855    2.603235
 N      1.264186   -1.283405    0.020060
 N     -0.199085    0.734087    1.419020
 C      1.281325   -3.348604   -1.279043
 H      3.966100   -3.081186   -0.621994
 C      5.894221   -0.065060    1.309190
 C      5.079102    1.038768    1.689375
 H      3.121239    1.860521    1.727746
 H      5.967408   -1.990283    0.398797
 H      6.959451   -0.038286    1.524109
 H      5.531439    1.887700    2.194888
 C      1.117298    4.519421   -1.496783
 C      2.090780    3.502925   -1.712382
 H      2.760925    1.561131   -1.197298
 H     -0.655177    5.087261   -0.461069
 H      1.193571    5.454615   -2.045779
 H      2.889694    3.671682   -2.429426
 H      0.266374   -3.388996   -0.891092
 C      1.226027   -2.859990   -2.723798
 C      1.903943   -4.731275   -1.165728
 H      0.646230   -3.553032   -3.333532
 H      0.752143   -1.882307   -2.789996
 H      2.223244   -2.788228   -3.157151
 H      1.287537   -5.454421   -1.700272
 H      2.900398   -4.762162   -1.604326
 H      1.970835   -5.051235   -0.126545
 C     -3.502463    2.150424    2.464116
 H     -2.520617    0.255316    2.381720
 C     -1.689561    1.363428    4.015875
 H     -3.890340    2.141047    1.447748
 H     -4.279493    1.761740    3.122352
 H     -3.314079    3.183284    2.753883
 H     -1.424538    2.389112    4.272248
 H     -2.433331    1.020076    4.732907
 H     -0.811275    0.737074    4.123651
