75

 Si    -0.933907   -1.973054    0.691294
 O     -2.149130   -0.939304    0.436601
 C     -3.176918   -0.860471   -0.496092
 C     -2.697867    0.060704   -1.582959
 H     -3.339044   -1.851129   -0.925674
 C     -3.269523    1.289311   -1.864580
 C     -1.590097   -0.349865   -2.312425
 C     -2.748103    2.093342   -2.869342
 H     -4.138354    1.627771   -1.316009
 C     -1.058357    0.449828   -3.305264
 H     -1.152277   -1.311193   -2.100137
 C     -1.641483    1.677255   -3.590588
 H     -3.216012    3.048540   -3.088442
 H     -0.196286    0.107988   -3.869236
 H     -1.237241    2.304030   -4.379021
 C     -4.434161   -0.444507    0.220677
 C     -4.687649   -1.330064    1.366131
 H     -5.291861   -0.476575   -0.461979
 H     -4.341597    0.574022    0.590687
 C     -4.856258   -2.053814    2.308633
 H     -5.030273   -2.696069    3.139318
 Cl    -0.525466   -3.008005    2.374426
 Cl    -1.640117   -3.557908   -0.405688
 O      0.306148   -1.746917   -0.449063
 O     -0.178167   -0.605407    1.550679
 C      1.824346   -0.181980    0.102812
 C      0.709584    0.759701    0.023078
 C     -1.213430    1.431757    1.237398
 C      2.420067   -2.486404    0.058570
 C      3.694096   -2.157504    0.398392
 C      3.120374    0.201051    0.481915
 C      4.077520   -0.819487    0.626405
 C      0.661089    1.886608   -0.805669
 C     -0.372220    2.806612   -0.569405
 C     -1.271156    2.566315    0.490152
 C      3.476717    1.547912    0.759910
 C      5.398343   -0.475312    1.016807
 C      1.592894    2.110927   -1.851836
 C     -0.448835    3.970631   -1.376748
 H     -2.024039    3.304959    0.720768
 C     -2.046932    1.100952    2.435609
 N      1.530775   -1.454902   -0.071282
 N     -0.239040    0.533430    0.912665
 C      1.890757   -3.856697   -0.226990
 H      4.423133   -2.947067    0.507574
 C      5.722644    0.821458    1.262252
 C      4.744406    1.848147    1.138399
 H      2.733015    2.324950    0.675020
 H      6.135034   -1.263978    1.119310
 H      6.733949    1.082597    1.563701
 H      5.019211    2.877092    1.354084
 C      0.455958    4.174193   -2.369593
 C      1.488165    3.226520   -2.616393
 H      2.370390    1.383290   -2.037242
 H     -1.240149    4.686566   -1.188121
 H      0.393590    5.065738   -2.988283
 H      2.193111    3.402281   -3.424486
 H      0.882188   -3.879977    0.183609
 C      1.800162   -4.047735   -1.735697
 C      2.710765   -4.947455    0.443023
 H      1.340205   -5.008755   -1.961890
 H      1.191431   -3.272907   -2.191996
 H      2.789593   -4.032879   -2.192848
 H      2.224116   -5.910013    0.284382
 H      3.715323   -5.013242    0.026694
 H      2.789108   -4.787302    1.518749
 C     -3.209604    2.063026    2.623137
 H     -2.432283    0.099081    2.262859
 C     -1.158913    1.083950    3.675517
 H     -3.833067    2.139510    1.734880
 H     -3.840469    1.711767    3.439354
 H     -2.863201    3.062852    2.882145
 H     -0.733028    2.068891    3.864721
 H     -1.748279    0.805690    4.548519
 H     -0.353411    0.366632    3.574118
