75

 Si    -0.727627   -1.262375   -0.583968
 O     -2.446332   -0.959739    0.053237
 C     -3.332065   -1.764425    0.317232
 C     -4.672971   -1.390519    0.728570
 H     -3.119847   -2.834120    0.234312
 C     -5.037837   -0.045534    0.801921
 C     -5.595740   -2.387653    1.041525
 C     -6.314007    0.301148    1.187318
 H     -4.306666    0.706942    0.545942
 C     -6.878798   -2.038970    1.431146
 H     -5.305388   -3.431979    0.979188
 C     -7.233623   -0.699417    1.503087
 H     -6.605461    1.345432    1.244388
 H     -7.602179   -2.810522    1.677172
 H     -8.241029   -0.425613    1.807880
 C     -3.524541    0.765246   -2.654114
 C     -2.324080    0.361006   -2.331274
 H     -3.913301    1.719411   -2.314157
 H     -4.146935    0.159206   -3.308175
 C     -1.140196   -0.071683   -1.991278
 H     -0.338221    0.183420   -2.678341
 Cl    -0.360583   -2.423996    1.148370
 Cl    -1.249244   -2.951234   -1.719450
 O      0.945073   -1.244452   -1.152748
 O     -0.256291    0.076043    0.516792
 C      2.283160   -0.131897    0.252325
 C      1.599024    1.064100   -0.238828
 C     -0.451075    2.255133   -0.201501
 C      2.531507   -2.476294   -0.021573
 C      3.520581   -2.473562    0.910241
 C      3.271973   -0.085917    1.246429
 C      3.896663   -1.295995    1.588708
 C      2.262020    2.115828   -0.893513
 C      1.509840    3.260651   -1.200242
 C      0.155142    3.312394   -0.801138
 C      3.629439    1.112866    1.918777
 C      4.896399   -1.292083    2.597518
 C      3.628624    2.041778   -1.266886
 C      2.141942    4.337970   -1.873205
 H     -0.415230    4.212608   -0.976698
 C     -1.843240    2.200868    0.340335
 N      1.921165   -1.279407   -0.285406
 N      0.304336    1.129790    0.001216
 C      2.077079   -3.639376   -0.842720
 H      4.021540   -3.402845    1.137612
 C      5.228710   -0.134203    3.226415
 C      4.581700    1.087073    2.884871
 H      3.132029    2.036429    1.662918
 H      5.381851   -2.226474    2.855365
 H      5.991773   -0.134169    4.000523
 H      4.853735    2.000301    3.406991
 C      3.453721    4.250413   -2.222265
 C      4.207502    3.083434   -1.918064
 H      4.195377    1.150393   -1.040788
 H      1.561432    5.223763   -2.104914
 H      3.935209    5.075303   -2.741200
 H      5.251477    3.028577   -2.214369
 H      0.997399   -3.535364   -0.934823
 C      2.688429   -3.524945   -2.233957
 C      2.383770   -4.973305   -0.183736
 H      2.317650   -4.327127   -2.871136
 H      2.419662   -2.580093   -2.698784
 H      3.775342   -3.602357   -2.197532
 H      1.945819   -5.776858   -0.776233
 H      3.455481   -5.159586   -0.119275
 H      1.958616   -5.027462    0.818403
 C     -2.716502    3.331074   -0.181484
 H     -2.249423    1.247885    0.013292
 C     -1.782418    2.196964    1.863936
 H     -2.733885    3.361326   -1.269829
 H     -3.740944    3.194264    0.165198
 H     -2.377323    4.299242    0.184689
 H     -1.343462    3.119868    2.241941
 H     -2.785672    2.116556    2.281099
 H     -1.200053    1.356848    2.226721
