75

 Si    -0.364116   -2.192971    0.551151
 O     -1.753257   -1.406472    0.800365
 C     -3.001519   -1.426025    0.188696
 C     -3.007967   -0.297738   -0.804359
 H     -3.112973   -2.367165   -0.353482
 C     -3.826927    0.813832   -0.708160
 C     -2.102528   -0.378606   -1.853900
 C     -3.750109    1.827388   -1.654066
 H     -4.546553    0.896103    0.095428
 C     -2.011691    0.631459   -2.791717
 H     -1.472844   -1.249270   -1.934190
 C     -2.842405    1.740003   -2.696345
 H     -4.409028    2.686849   -1.573412
 H     -1.302444    0.546493   -3.608934
 H     -2.786286    2.530119   -3.438260
 C     -4.055083   -1.371707    1.263177
 C     -3.825764   -2.428562    2.258649
 H     -4.028794   -0.411108    1.772517
 H     -5.053379   -1.492663    0.825638
 C     -3.600642   -3.285323    3.068481
 H     -3.425308   -4.049995    3.787743
 Cl     0.668268   -3.321857    1.866633
 Cl    -1.083227   -3.740990   -0.589081
 O      0.446086   -1.577338   -0.810570
 O      0.370967   -0.816254    1.414381
 C      1.782270    0.184599   -0.400035
 C      0.552872    0.880390   -0.025640
 C     -1.028622    0.988196    1.738290
 C      2.708138   -1.925151   -0.999011
 C      3.954742   -1.386745   -0.945195
 C      3.052001    0.775200   -0.304963
 C      4.163649   -0.037072   -0.593004
 C      0.088284    2.067766   -0.602993
 C     -0.970188    2.720526    0.047751
 C     -1.479796    2.171157    1.242263
 C      3.248217    2.121232    0.104899
 C      5.466274    0.519961   -0.501896
 C      0.634758    2.606219   -1.796553
 C     -1.460618    3.936063   -0.495095
 H     -2.246356    2.705126    1.783444
 C     -1.421933    0.347447    3.032347
 N      1.662899   -1.089860   -0.713612
 N     -0.053705    0.356011    1.023002
 C      2.350323   -3.328670   -1.375229
 H      4.803304   -2.017625   -1.166011
 C      5.631073    1.815001   -0.124058
 C      4.504485    2.625961    0.191388
 H      2.394898    2.733383    0.352299
 H      6.319936   -0.107024   -0.732912
 H      6.629576    2.238853   -0.052350
 H      4.657784    3.654203    0.507582
 C      0.137411    3.763300   -2.300336
 C     -0.921038    4.442257   -1.634553
 H     -2.270491    4.446320    0.012908
 H      1.434579    2.081407   -2.299721
 H      0.544716    4.178338   -3.218322
 H     -1.300293    5.372457   -2.049779
 C      1.868680   -3.345903   -2.820449
 C      3.492767   -4.303047   -1.137487
 C     -0.228552    0.361286    3.982053
 C     -2.625913    1.018088    3.675147
 H      1.527406   -4.345345   -3.086778
 H      1.037407   -2.662014   -2.963509
 H      2.671816   -3.071707   -3.504542
 H      3.144701   -5.317616   -1.332465
 H      4.334898   -4.110255   -1.801151
 H      3.845466   -4.264275   -0.106448
 H      0.621512   -0.156805    3.554647
 H      0.065344    1.381990    4.225123
 H     -0.492200   -0.137388    4.914104
 H     -3.478764    1.074121    3.002058
 H     -2.933518    0.445345    4.549778
 H     -2.389953    2.027604    4.009699
 H      1.517094   -3.608281   -0.731922
 H     -1.669821   -0.683224    2.790856
