75

 Si    -0.816189   -1.204738   -0.473198
 O     -2.333721   -0.957843    0.090803
 C     -3.658144   -1.148909   -0.246893
 C     -4.466154   -0.217087    0.607916
 H     -3.812461   -0.903263   -1.301674
 C     -4.196833   -0.160809    1.966994
 C     -5.451276    0.598338    0.072488
 C     -4.897310    0.705901    2.787796
 H     -3.424122   -0.796619    2.375217
 C     -6.157584    1.470505    0.890089
 H     -5.674571    0.553023   -0.988184
 C     -5.881092    1.526874    2.247898
 H     -4.678275    0.741384    3.851031
 H     -6.929610    2.104873    0.463389
 H     -6.435867    2.206492    2.888760
 C     -4.064584   -2.590615   -0.020730
 C     -3.487841   -3.510044   -1.016194
 H     -5.155846   -2.680814   -0.072910
 H     -3.745102   -2.891190    0.977292
 C     -3.038180   -4.255058   -1.843816
 H     -2.646786   -4.920743   -2.574487
 Cl    -1.259565   -1.016435   -2.444390
 Cl    -0.505571   -2.896225    0.587701
 O     -0.340043    0.139558    0.473682
 O      0.867401   -1.164621   -1.076220
 C      1.572588    1.102994   -0.194211
 C      2.208195   -0.086907    0.367080
 C      2.537861   -2.396436   -0.056157
 C     -0.518778    2.139851   -0.649395
 C      0.130556    3.153921   -1.280615
 C      2.283765    2.118179   -0.850446
 C      1.534965    3.167835   -1.411605
 C      3.163691   -0.073961    1.391188
 C      3.800686   -1.290626    1.688164
 C      3.496168   -2.426702    0.907781
 C      3.696104    2.095384   -1.001523
 C      2.215203    4.206606   -2.100124
 C      3.473647    1.094871    2.135216
 C      4.760342   -1.323632    2.733758
 H      4.040048   -3.345559    1.070919
 C      2.225494   -3.479971   -1.043044
 N      0.255930    1.133623   -0.141375
 N      1.865654   -1.216069   -0.225860
 C     -1.987309    2.037529   -0.394657
 H     -0.452802    3.962680   -1.695940
 C      3.568280    4.172728   -2.223426
 C      4.319887    3.097567   -1.670119
 H      4.263574    1.274538   -0.589950
 H      1.635837    5.017735   -2.526349
 H      4.086983    4.967267   -2.753926
 H      5.399669    3.082678   -1.791121
 C      5.044800   -0.194772    3.435973
 C      4.389681    1.032848    3.134517
 H      2.965083    2.021221    1.908506
 H      5.255489   -2.261105    2.960431
 H      5.777392   -0.223402    4.238605
 H      4.625943    1.921019    3.714294
 H     -2.226340    0.980255   -0.403653
 C     -2.269913    2.570807    1.002369
 C     -2.811163    2.739024   -1.460902
 H     -3.324431    2.462357    1.235995
 H     -1.706781    2.018263    1.749633
 H     -2.014097    3.627244    1.082008
 H     -3.868136    2.560447   -1.270979
 H     -2.652977    3.816663   -1.453547
 H     -2.579942    2.361241   -2.457179
 C      2.572990   -4.863851   -0.519723
 H      1.153816   -3.433137   -1.225073
 C      2.945731   -3.152458   -2.347882
 H      2.073187   -5.067712    0.427286
 H      2.247109   -5.616410   -1.238234
 H      3.646456   -4.987165   -0.380902
 H      4.027702   -3.152101   -2.215598
 H      2.703082   -3.897153   -3.105771
 H      2.638408   -2.180176   -2.726797
