75

 Si    -1.250286   -1.459465    0.977957
 O     -2.336622   -0.294010    0.699318
 C     -3.190313    0.106282   -0.331535
 C     -2.487561   -0.142911   -1.633235
 H     -3.296955    1.188218   -0.197950
 C     -1.511190    0.762597   -2.014033
 C     -2.686809   -1.274301   -2.404276
 C     -0.708673    0.528316   -3.114303
 H     -1.391146    1.666179   -1.444578
 C     -1.893652   -1.516345   -3.513305
 H     -3.458106   -1.982464   -2.140425
 C     -0.892167   -0.624073   -3.863762
 H      0.048557    1.249785   -3.398778
 H     -2.061019   -2.410903   -4.105753
 H     -0.269441   -0.817090   -4.732800
 C     -4.549800   -0.517542   -0.162845
 C     -5.106056   -0.162253    1.153290
 H     -5.228109   -0.163738   -0.948963
 H     -4.475824   -1.600938   -0.230880
 C     -5.535251    0.136164    2.234201
 H     -5.946630    0.387625    3.182641
 Cl    -0.690714   -2.487079    2.633214
 Cl    -2.313987   -3.019034    0.178081
 O     -0.144376   -1.386810   -0.307920
 O     -0.289075   -0.169259    1.733848
 C      1.715002   -0.229767    0.237224
 C      0.861471    0.955732    0.197249
 C     -0.926619    2.014416    1.342268
 C      1.791556   -2.594678   -0.008709
 C      3.115435   -2.577645    0.297412
 C      3.069668   -0.171682    0.598601
 C      3.785139   -1.381438    0.624267
 C      1.104469    2.083002   -0.600388
 C      0.285547    3.203842   -0.386682
 C     -0.704961    3.144058    0.617810
 C      3.714576    1.037442    0.975204
 C      5.156557   -1.365032    0.991238
 C      2.101552    2.110974   -1.609325
 C      0.485536    4.361191   -1.183669
 H     -1.307092    4.017692    0.820830
 C     -1.880116    1.854243    2.483351
 N      1.138312   -1.391033   -0.010675
 N     -0.138486    0.935744    1.056980
 C      0.978535   -3.793398   -0.378469
 H      3.657547   -3.511616    0.306453
 C      5.758338   -0.195395    1.332084
 C      5.022964    1.023860    1.332258
 H      3.155470    1.960119    0.986744
 H      5.706103   -2.299439    1.000227
 H      6.807405   -0.184807    1.616964
 H      5.516920    1.945820    1.626735
 C      2.267044    3.228365   -2.361760
 C      1.449190    4.372091   -2.142818
 H     -0.144509    5.227494   -1.016182
 H      2.710983    1.235575   -1.781310
 H      3.023035    3.253274   -3.142021
 H      1.598161    5.258108   -2.754764
 C      0.743141   -3.785994   -1.883370
 C      1.603858   -5.093674    0.099367
 C     -1.088251    1.845752    3.786490
 C     -2.969150    2.914287    2.487740
 H      0.092056   -4.613767   -2.160569
 H      0.263756   -2.865722   -2.199990
 H      1.680316   -3.900634   -2.427848
 H      0.919991   -5.916497   -0.109631
 H      2.541818   -5.306360   -0.412401
 H      1.787757   -5.079436    1.173976
 H     -0.343593    1.055830    3.784297
 H     -0.588944    2.800602    3.950391
 H     -1.758181    1.673171    4.628373
 H     -3.521810    2.928581    1.549051
 H     -3.679781    2.697083    3.284677
 H     -2.567047    3.910469    2.669810
 H      0.018138   -3.669973    0.119318
 H     -2.343602    0.882217    2.345981
