75

 Si     1.091915   -1.324489   -0.217642
 O      1.869930    0.060028    0.045003
 C      2.819868    0.736103    0.778885
 C      4.202396    0.478046    0.251864
 H      2.592705    1.799954    0.634083
 C      4.431020   -0.545328   -0.650123
 C      5.263390    1.286450    0.645517
 C      5.702134   -0.769818   -1.155340
 H      3.617394   -1.178017   -0.960376
 C      6.536425    1.065281    0.146692
 H      5.095040    2.096704    1.346391
 C      6.759694    0.033886   -0.756739
 H      5.862738   -1.579303   -1.861293
 H      7.357716    1.701967    0.463506
 H      7.757489   -0.141454   -1.148624
 C      2.687634    0.439007    2.255655
 C      1.310972    0.658833    2.727258
 H      3.361760    1.090979    2.822323
 H      2.962152   -0.594443    2.457192
 C      0.191158    0.837096    3.121177
 H     -0.783974    0.992172    3.507973
 Cl     1.230711   -2.515878   -1.843014
 Cl     2.168627   -2.532700    1.038557
 O     -0.260950   -1.448879    0.797726
 O      0.031140   -0.334212   -1.257663
 C     -2.144503   -0.536114   -0.033284
 C     -1.424036    0.731651    0.058802
 C      0.333763    1.935344   -0.983800
 C     -1.940595   -2.896283    0.195248
 C     -3.203438   -3.045143   -0.284644
 C     -3.440785   -0.644273   -0.558816
 C     -3.980757   -1.937067   -0.681227
 C     -1.830000    1.844067    0.805730
 C     -1.085774    3.024308    0.646224
 C     -0.035907    3.048788   -0.297193
 C     -4.188898    0.479825   -1.000498
 C     -5.286465   -2.089896   -1.217133
 C     -2.911430    1.798966    1.724243
 C     -1.438577    4.164322    1.415297
 H      0.486892    3.975322   -0.484720
 C      1.352703    1.841515   -2.074857
 N     -1.464443   -1.617168    0.293874
 N     -0.351170    0.787880   -0.706482
 C     -1.022668   -3.981256    0.663375
 H     -3.611123   -4.041456   -0.373930
 C     -5.991896   -1.000097   -1.619490
 C     -5.431523    0.304480   -1.515867
 H     -3.759474    1.467471   -0.929668
 H     -5.702824   -3.087167   -1.302708
 H     -6.990684   -1.119358   -2.031816
 H     -6.005907    1.161344   -1.857390
 C     -2.474179    4.102736    2.293653
 C     -3.221893    2.901622    2.451698
 H     -3.467649    0.880384    1.847325
 H     -0.866931    5.077063    1.290757
 H     -2.739404    4.975686    2.884654
 H     -4.042606    2.872947    3.163465
 H     -0.025861   -3.695788    0.329511
 C     -1.027759   -4.010020    2.186723
 C     -1.365853   -5.334126    0.060827
 H     -0.304308   -4.740232    2.546654
 H     -0.755198   -3.042316    2.596759
 H     -2.008538   -4.292325    2.569617
 H     -0.608380   -6.060040    0.357087
 H     -2.329613   -5.701290    0.411767
 H     -1.382765   -5.296195   -1.028815
 C      2.292728    3.034850   -2.108234
 H      1.928824    0.945558   -1.868021
 C      0.626774    1.658099   -3.403683
 H      2.796922    3.181390   -1.154456
 H      3.059474    2.869017   -2.865041
 H      1.769784    3.954597   -2.368056
 H      0.009806    2.525243   -3.638594
 H      1.349574    1.537313   -4.210062
 H     -0.002514    0.773838   -3.383790
