75

 Si     0.879915    1.091069   -0.615720
 O      2.398290    0.792529   -0.079577
 C      3.718952    0.856286   -0.475056
 C      4.493110   -0.046415    0.440187
 H      3.816279    0.500848   -1.505094
 C      4.281344    0.053310    1.807021
 C      5.387130   -0.988107   -0.045403
 C      4.949220   -0.782075    2.685360
 H      3.578388    0.786228    2.176854
 C      6.060160   -1.829943    0.830118
 H      5.565634   -1.065793   -1.112635
 C      5.841350   -1.729667    2.195822
 H      4.776100   -0.694760    3.754053
 H      6.760670   -2.564115    0.441805
 H      6.369589   -2.386316    2.881485
 C      4.230549    2.280228   -0.403913
 C      3.679223    3.138767   -1.466083
 H      5.322552    2.287453   -0.499742
 H      3.970631    2.697299    0.569208
 C      3.250157    3.830881   -2.348736
 H      2.878269    4.450187   -3.128708
 Cl     1.232913    0.682632   -2.571939
 Cl     0.726088    2.894931    0.282050
 O      0.351392   -0.117748    0.474398
 O     -0.824197    1.113344   -1.158245
 C     -1.649726   -0.998867   -0.027614
 C     -2.177732    0.284249    0.430415
 C     -2.366975    2.556949   -0.218714
 C      0.344031   -2.225998   -0.446203
 C     -0.399674   -3.247994   -0.947050
 C     -2.456059   -2.018633   -0.554016
 C     -1.805783   -3.171292   -1.029427
 C     -3.092662    0.442484    1.479231
 C     -3.634368    1.725018    1.668602
 C     -3.283768    2.752194    0.766063
 C     -3.868069   -1.906252   -0.661419
 C     -2.584220   -4.220268   -1.585684
 C     -3.451126   -0.620076    2.349949
 C     -4.548733    1.931415    2.734647
 H     -3.757149    3.719345    0.851038
 C     -2.018299    3.510655   -1.320753
 N     -0.337329   -1.120450   -0.017172
 N     -1.783229    1.320577   -0.286671
 C      1.825441   -2.205753   -0.254182
 H      0.108309   -4.135142   -1.296070
 C     -3.935329   -4.098475   -1.668575
 C     -4.586734   -2.920534   -1.204844
 H     -4.359800   -1.009178   -0.317006
 H     -2.080814   -5.110744   -1.944708
 H     -4.529463   -4.901511   -2.097423
 H     -5.666523   -2.837098   -1.293617
 C     -4.880742    0.902447    3.558938
 C     -4.321224   -0.392438    3.366205
 H     -3.015335   -1.598379    2.204356
 H     -4.970978    2.919580    2.878319
 H     -5.578051    1.063981    4.377101
 H     -4.593207   -1.198150    4.042708
 H      2.136781   -1.175173   -0.381684
 C      2.127544   -2.610945    1.181466
 C      2.553854   -3.072666   -1.266693
 H      3.195609   -2.555610    1.366766
 H      1.635010   -1.944250    1.884006
 H      1.803193   -3.631999    1.381467
 H      3.627596   -2.952874   -1.132994
 H      2.322133   -4.129185   -1.138527
 H      2.308476   -2.784987   -2.289352
 C     -2.273542    4.959923   -0.940834
 H     -0.955667    3.381948   -1.516595
 C     -2.788228    3.091827   -2.569847
 H     -1.741284    5.231909   -0.029238
 H     -1.921328    5.612213   -1.740371
 H     -3.334715    5.160821   -0.797967
 H     -3.864840    3.166845   -2.416752
 H     -2.524842    3.739560   -3.405802
 H     -2.544143    2.069927   -2.850983
