81

 Si    -0.843334   -1.126254   -0.414245
 O     -2.350293   -0.897072    0.183038
 C     -3.659592   -1.300632   -0.005069
 C     -4.520666   -0.303303    0.711660
 H     -3.899640   -1.291317   -1.071803
 C     -4.290966   -0.067832    2.059453
 C     -5.504051    0.417352    0.052507
 C     -5.029604    0.880037    2.745222
 H     -3.519062   -0.628069    2.568143
 C     -6.249075    1.370970    0.734152
 H     -5.697571    0.234012   -0.998925
 C     -6.012280    1.605021    2.080058
 H     -4.841858    1.053866    3.800795
 H     -7.020989    1.928071    0.210434
 H     -6.597722    2.347571    2.615128
 C     -3.873321   -2.700996    0.530728
 C     -3.249169   -3.744916   -0.299947
 H     -4.947409   -2.914833    0.581770
 H     -3.466596   -2.756482    1.540152
 C     -2.769088   -4.606971   -0.984441
 H     -2.347706   -5.373867   -1.587774
 Cl    -1.400786   -1.483169   -2.331633
 Cl    -0.323052   -2.502917    0.971088
 O     -0.505749    0.398540    0.287347
 O      0.786140   -1.014592   -1.123186
 C      1.570172    1.170670   -0.058158
 C      2.064491   -0.103544    0.461297
 C      2.497251   -2.327897   -0.245767
 C     -0.311995    2.526309   -0.580139
 C      0.537592    3.491726   -1.025312
 C      2.477274    2.136729   -0.529730
 C      1.938056    3.325398   -1.039887
 C      2.892426   -0.219880    1.582785
 C      3.495221   -1.468904    1.795829
 C      3.326400   -2.478149    0.823729
 C      3.882564    1.936124   -0.545375
 C      2.810314    4.323842   -1.544360
 C      3.099077    0.843468    2.499479
 C      4.311976   -1.647157    2.942497
 H      3.884199   -3.395266    0.929446
 C      2.412283   -3.271222   -1.429459
 N      0.267183    1.351624   -0.153363
 N      1.797978   -1.148957   -0.297586
 C     -1.814674    2.688715   -0.494640
 H      0.126747    4.422712   -1.381839
 C      4.154399    4.117674   -1.542440
 C      4.697333    2.903071   -1.039704
 H      4.298992    1.013070   -0.173922
 H      2.386241    5.243256   -1.931767
 H      4.824113    4.880100   -1.932046
 H      5.773083    2.750597   -1.058411
 C      3.877254    0.642814    3.592971
 C      4.493088   -0.621368    3.816569
 H      4.782099   -2.610055    3.107238
 H      2.619679    1.796939    2.327793
 H      4.031988    1.446044    4.308234
 H      5.114336   -0.760836    4.697673
 C     -2.268823    2.436043    0.938850
 C     -2.211224    4.118756   -0.876810
 C     -2.482407    1.732734   -1.470244
 C      1.061755   -3.965307   -1.530159
 C      2.680531   -2.446238   -2.689683
 C      3.496036   -4.346436   -1.306379
 H     -3.334805    2.620264    1.020185
 H     -2.090122    1.420124    1.246337
 H     -1.769068    3.109212    1.633047
 H     -3.548115    1.932608   -1.508139
 H     -2.091921    1.853268   -2.478168
 H     -2.360124    0.711466   -1.167654
 H     -3.289348    4.222742   -0.777017
 H     -1.756051    4.864503   -0.227381
 H     -1.961763    4.358122   -1.908911
 H      0.261912   -3.263811   -1.700771
 H      1.080486   -4.656427   -2.370153
 H      0.837216   -4.537211   -0.634852
 H      1.911528   -1.703555   -2.849636
 H      3.646386   -1.945572   -2.641280
 H      2.697587   -3.098077   -3.560046
 H      3.338801   -4.991077   -0.443645
 H      3.470129   -4.981627   -2.189399
 H      4.497703   -3.924373   -1.244380
