81

 Si    -0.891770   -0.620949   -0.055139
 O     -2.358913   -1.299440   -0.039146
 C     -3.608281   -1.150700   -0.633057
 C     -4.443315   -0.250977    0.230065
 H     -3.502209   -0.707086   -1.624397
 C     -4.304786   -0.320855    1.607804
 C     -5.334454    0.655414   -0.324455
 C     -5.041203    0.514789    2.430021
 H     -3.603034   -1.026385    2.029800
 C     -6.080043    1.491172    0.495325
 H     -5.445243    0.714350   -1.402063
 C     -5.932852    1.424385    1.873230
 H     -4.921873    0.454337    3.507919
 H     -6.776504    2.198692    0.053965
 H     -6.515353    2.079194    2.515364
 C     -4.202579   -2.533104   -0.768934
 C     -3.438281   -3.352030   -1.726248
 H     -5.241121   -2.471725   -1.116153
 H     -4.197678   -3.016617    0.209299
 C     -2.814452   -3.995175   -2.526064
 H     -2.286156   -4.579480   -3.240144
 Cl    -1.245966    0.439159   -1.831490
 Cl    -0.516175   -1.609090    1.762305
 O     -0.212703    0.714673    0.774671
 O      0.485077   -1.212643   -0.869199
 C      1.673573    1.025260   -0.365697
 C      2.128783   -0.223458    0.264114
 C      2.020324   -2.602482    0.194268
 C      0.078299    2.789947   -0.246174
 C      0.805330    3.479264   -1.166938
 C      2.448319    1.699286   -1.314276
 C      1.969849    2.942645   -1.758017
 C      3.154015   -0.231580    1.214798
 C      3.576042   -1.485729    1.684186
 C      3.018109   -2.652219    1.118008
 C      3.648069    1.159942   -1.847000
 C      2.705189    3.643160   -2.748599
 C      3.734370    0.958240    1.726731
 C      4.587433   -1.538730    2.677687
 H      3.406502   -3.611632    1.421499
 C      1.477310   -3.777962   -0.591935
 N      0.526273    1.529797    0.041985
 N      1.568017   -1.351034   -0.124796
 C     -1.070945    3.338491    0.574403
 H      0.492836    4.472871   -1.447458
 C      3.847656    3.107806   -3.256128
 C      4.327303    1.847898   -2.798890
 H      4.003748    0.200743   -1.499070
 H      2.339792    4.604580   -3.091018
 H      4.407466    3.644104   -4.018223
 H      5.242092    1.440124   -3.220173
 C      4.694454    0.878705    2.681959
 C      5.126510   -0.389016    3.164272
 H      4.917133   -2.506040    3.039169
 H      3.399407    1.917697    1.360050
 H      5.139240    1.783701    3.086617
 H      5.898578   -0.431366    3.928403
 C     -0.649224    3.255016    2.043740
 C     -1.315526    4.804212    0.207860
 C     -2.367132    2.569948    0.350997
 C     -0.007218   -4.013944   -0.338994
 C      1.729464   -3.484561   -2.073023
 C      2.233958   -5.051017   -0.203852
 H     -1.426558    3.677356    2.676433
 H     -0.490429    2.231236    2.357001
 H      0.263202    3.819944    2.229247
 H     -3.165377    3.049289    0.910798
 H     -2.651223    2.561648   -0.695494
 H     -2.306756    1.549952    0.690639
 H     -2.115260    5.200499    0.830084
 H     -0.439075    5.427368    0.377076
 H     -1.626162    4.918239   -0.829210
 H     -0.627161   -3.200775   -0.679163
 H     -0.318271   -4.905446   -0.877639
 H     -0.212622   -4.172747    0.714590
 H      1.188563   -2.609182   -2.407378
 H      2.789259   -3.335098   -2.274510
 H      1.400611   -4.326860   -2.677336
 H      2.080122   -5.314346    0.841035
 H      1.867432   -5.882004   -0.802851
 H      3.304176   -4.971649   -0.387089
