81

 Si    -1.416592    1.108788   -0.532855
 O     -1.771717   -0.314584    0.134120
 C     -2.219605   -1.034838    1.224304
 C     -3.566463   -1.611459    0.912163
 H     -1.511885   -1.858414    1.348784
 C     -4.562642   -0.787254    0.411800
 C     -3.816339   -2.966681    1.072615
 C     -5.795711   -1.309590    0.064305
 H     -4.362615    0.266750    0.287328
 C     -5.053352   -3.495261    0.731571
 H     -3.046162   -3.618604    1.470079
 C     -6.043737   -2.667843    0.223360
 H     -6.566657   -0.654478   -0.330816
 H     -5.242364   -4.557018    0.862632
 H     -7.012001   -3.079941   -0.046711
 C     -2.222513   -0.240988    2.508376
 C     -0.896277    0.287417    2.864015
 H     -2.557605   -0.896716    3.321654
 H     -2.919024    0.590449    2.432268
 C      0.170277    0.729785    3.191366
 H      1.098940    1.130681    3.510446
 Cl    -2.019576    1.785285   -2.340495
 Cl    -2.719407    2.270301    0.552019
 O     -0.135016    1.792626    0.343621
 O     -0.183665    0.225597   -1.466334
 C      1.857748    0.854730   -0.129602
 C      1.240893   -0.452374    0.091418
 C     -0.124808   -2.051589   -1.006425
 C      1.615273    3.220951   -0.125722
 C      2.918988    3.331797   -0.498532
 C      3.199341    0.932103   -0.543773
 C      3.736997    2.210658   -0.745387
 C      1.676847   -1.372610    1.052200
 C      1.124216   -2.659492    0.986684
 C      0.272341   -2.978271   -0.092492
 C      3.995531   -0.215576   -0.800282
 C      5.081705    2.339105   -1.178558
 C      2.604240   -1.043274    2.073005
 C      1.491244   -3.613980    1.970411
 H     -0.062687   -3.997947   -0.200592
 C     -0.883481   -2.352785   -2.281360
 N      1.116818    1.941043   -0.011642
 N      0.318159   -0.776105   -0.790124
 C      0.723575    4.400453    0.203149
 H      3.346484    4.315067   -0.612264
 C      5.831440    1.228489   -1.408925
 C      5.277262   -0.068269   -1.221939
 H      3.576587   -1.200985   -0.670865
 H      5.492570    3.331490   -1.325357
 H      6.860804    1.325083   -1.744759
 H      5.887139   -0.944419   -1.424881
 C      2.935982   -1.973095    3.003980
 C      2.367223   -3.276413    2.954236
 H      1.064006   -4.609163    1.921269
 H      3.026113   -0.049724    2.109247
 H      3.637146   -1.726284    3.796549
 H      2.644330   -4.006675    3.710328
 C      0.192665    4.249823    1.627388
 C      1.526355    5.704178    0.133989
 C     -0.399120    4.484508   -0.821425
 C     -2.275494   -1.747122   -2.276679
 C     -0.062055   -1.802235   -3.448008
 C     -1.023035   -3.868564   -2.452491
 H     -0.419023    5.112736    1.880069
 H     -0.417554    3.369129    1.749747
 H      1.010570    4.209678    2.344897
 H     -1.010879    5.361565   -0.628842
 H     -0.005577    4.573064   -1.831716
 H     -1.047175    3.627646   -0.780896
 H      0.872848    6.533287    0.396781
 H      2.359556    5.718891    0.834419
 H      1.909450    5.905154   -0.864725
 H     -2.243974   -0.673790   -2.250089
 H     -2.797528   -2.040899   -3.184406
 H     -2.856752   -2.090513   -1.433227
 H      0.033073   -0.727177   -3.395247
 H      0.934248   -2.240731   -3.474964
 H     -0.549007   -2.047565   -4.389071
 H     -1.635653   -4.314583   -1.671463
 H     -1.513704   -4.075506   -3.401221
 H     -0.060555   -4.376927   -2.471429
