81

 Si     0.037484   -1.237091    1.473432
 O     -0.928778   -2.160997    0.576330
 C     -2.061915   -2.951528    0.670670
 C     -3.125232   -2.350381   -0.202594
 H     -2.406796   -2.982316    1.707275
 C     -2.742896   -1.644286   -1.332365
 C     -4.472098   -2.474376    0.104580
 C     -3.693745   -1.050014   -2.144934
 H     -1.691683   -1.552032   -1.558223
 C     -5.429946   -1.886068   -0.709507
 H     -4.776927   -3.025550    0.988100
 C     -5.043028   -1.170061   -1.833163
 H     -3.383761   -0.496596   -3.026763
 H     -6.483119   -1.986313   -0.461875
 H     -5.793245   -0.709674   -2.470074
 C     -1.703709   -4.353657    0.230165
 C     -0.649026   -4.931791    1.077457
 H     -2.590127   -4.998037    0.275892
 H     -1.360710   -4.327103   -0.805429
 C      0.212263   -5.381487    1.782460
 H      0.968114   -5.793312    2.407186
 Cl    -0.848814   -1.594045    3.296963
 Cl     1.888959   -1.817078    2.033381
 O      0.546781   -0.696823   -0.161658
 O     -0.141203    0.435688    1.794767
 C      1.956739    0.977836    0.230016
 C      0.757005    1.813335    0.242022
 C     -1.455271    2.173607    1.036412
 C      2.757860   -1.015384   -0.780876
 C      4.031288   -0.584366   -0.563787
 C      3.247299    1.441102    0.510810
 C      4.312716    0.604610    0.143814
 C      0.682960    2.913077   -0.635254
 C     -0.504915    3.655504   -0.638136
 C     -1.545848    3.261475    0.226161
 C      3.494328    2.673857    1.167949
 C      5.637988    1.017436    0.438559
 C      1.729574    3.265183   -1.528525
 C     -0.631081    4.769659   -1.506670
 H     -2.451376    3.846340    0.239388
 C     -2.548164    1.743469    1.992106
 N      1.763544   -0.235454   -0.252345
 N     -0.278717    1.454786    0.977819
 C      2.353651   -2.184501   -1.651729
 H      4.854593   -1.169421   -0.942848
 C      5.858497    2.197903    1.076810
 C      4.771168    3.038046    1.449287
 H      2.661968    3.300110    1.457554
 H      6.463518    0.375736    0.152130
 H      6.873903    2.509032    1.308841
 H      4.970840    3.972775    1.966159
 C      1.584743    4.330928   -2.356865
 C      0.389558    5.100953   -2.341581
 H     -1.551479    5.342251   -1.493691
 H      2.635629    2.682154   -1.555907
 H      2.384388    4.597709   -3.042604
 H      0.294095    5.953119   -3.009652
 C      1.395267   -1.645804   -2.714711
 C      3.588617   -2.764666   -2.346019
 C      1.682361   -3.292235   -0.853727
 C     -3.061475    0.376924    1.562920
 C     -2.007024    1.752106    3.419795
 C     -3.724639    2.723954    1.931873
 H      1.118423   -2.441116   -3.402788
 H      0.487569   -1.263610   -2.269412
 H      1.854826   -0.854412   -3.304869
 H      1.454200   -4.120999   -1.518992
 H      2.332351   -3.672314   -0.072716
 H      0.762562   -2.963791   -0.405666
 H      3.280489   -3.569986   -3.009537
 H      4.109100   -2.026958   -2.954570
 H      4.295861   -3.187412   -1.634833
 H     -2.290455   -0.368424    1.574533
 H     -3.841526    0.044021    2.240205
 H     -3.484417    0.416163    0.564946
 H     -1.211674    1.038663    3.564970
 H     -1.643725    2.742667    3.688794
 H     -2.805775    1.499513    4.113239
 H     -4.183766    2.765727    0.946027
 H     -4.492888    2.391062    2.626523
 H     -3.442106    3.732989    2.226580
