81

 Si     0.327922    1.630406    1.577978
 O      1.492988    2.172828    0.590758
 C      1.718287    2.364982   -0.765532
 C      2.323461    1.115837   -1.340312
 H      0.774135    2.541553   -1.272364
 C      3.670449    0.828485   -1.187130
 C      1.516583    0.205933   -2.007652
 C      4.204334   -0.349900   -1.685702
 H      4.313836    1.528827   -0.671866
 C      2.043557   -0.965944   -2.522610
 H      0.469207    0.422053   -2.136758
 C      3.390898   -1.251368   -2.357056
 H      5.262358   -0.558831   -1.555180
 H      1.402284   -1.653075   -3.062496
 H      3.810396   -2.168503   -2.760579
 C      2.572676    3.601519   -0.906763
 C      1.843300    4.792569   -0.440372
 H      2.870084    3.752438   -1.951837
 H      3.475473    3.488064   -0.306376
 C      1.233665    5.752411   -0.054949
 H      0.709084    6.614776    0.281380
 Cl     1.404332    2.133219    3.253874
 Cl    -1.410551    2.359587    2.329712
 O     -0.460482    1.167003    0.035808
 O      0.376379   -0.021920    1.980395
 C     -1.740392   -0.571922    0.520301
 C     -0.503264   -1.342586    0.391243
 C      1.688932   -1.765002    1.208344
 C     -2.762764    1.442379   -0.209840
 C     -3.968306    0.934779    0.168612
 C     -2.956800   -1.129426    0.932205
 C     -4.096191   -0.321341    0.800968
 C     -0.422736   -2.383548   -0.547217
 C      0.767544   -3.121109   -0.585146
 C      1.789359   -2.797522    0.328662
 C     -3.056910   -2.425447    1.499739
 C     -5.346315   -0.824159    1.244563
 C     -1.466878   -2.677563   -1.463416
 C      0.901965   -4.173400   -1.526391
 H      2.683262   -3.399449    0.333066
 C      2.724395   -1.457677    2.272175
 N     -1.668020    0.676450    0.105107
 N      0.531047   -1.020850    1.144542
 C     -2.570046    2.657437   -1.096022
 H     -4.862784    1.502835   -0.032256
 C     -5.425066   -2.065742    1.794491
 C     -4.263899   -2.878387    1.924961
 H     -2.169163   -3.032634    1.605795
 H     -6.228916   -0.203262    1.140705
 H     -6.382232   -2.447722    2.140322
 H     -4.350111   -3.864599    2.372946
 C     -1.310175   -3.680365   -2.364247
 C     -0.110049   -4.444297   -2.392536
 H      1.822372   -4.745503   -1.544838
 H     -2.376224   -2.096712   -1.447411
 H     -2.102879   -3.904984   -3.072777
 H     -0.006956   -5.246799   -3.118567
 C     -1.919338    2.145160   -2.381827
 C     -3.929420    3.271797   -1.441969
 C     -1.711438    3.749203   -0.474149
 C      3.425430   -0.150387    1.935892
 C      2.055219   -1.423608    3.645386
 C      3.784700   -2.564890    2.304545
 H     -1.793424    2.959071   -3.091728
 H     -0.943405    1.727146   -2.185488
 H     -2.528638    1.383964   -2.866127
 H     -1.594389    4.556552   -1.192820
 H     -2.174986    4.164624    0.414347
 H     -0.727926    3.403746   -0.210747
 H     -3.778858    4.121731   -2.104431
 H     -4.584568    2.574516   -1.960917
 H     -4.447040    3.639758   -0.558022
 H      2.737518    0.658046    1.763869
 H      4.075065    0.142038    2.755938
 H      4.041754   -0.267685    1.052134
 H      1.391494   -0.582554    3.764254
 H      1.497933   -2.339873    3.831781
 H      2.819169   -1.347343    4.415458
 H      4.334012   -2.646719    1.369130
 H      4.512401   -2.329945    3.078307
 H      3.362278   -3.539171    2.544729
