81

 Si    -0.961989   -1.671942    0.545687
 O     -1.791265   -0.580909   -0.319101
 C     -2.501882   -0.643587   -1.516041
 C     -3.831502   -0.010029   -1.249708
 H     -2.656411   -1.688632   -1.782416
 C     -4.804349   -0.789682   -0.636539
 C     -4.083285    1.333474   -1.475277
 C     -6.009904   -0.233167   -0.245603
 H     -4.609714   -1.840369   -0.456649
 C     -5.290179    1.897182   -1.088678
 H     -3.345592    1.952578   -1.964756
 C     -6.254048    1.116068   -0.468501
 H     -6.761934   -0.853727    0.233178
 H     -5.480322    2.949732   -1.278518
 H     -7.200134    1.556032   -0.165759
 C     -1.692733    0.005740   -2.608355
 C     -0.416227   -0.680768   -2.846803
 H     -2.265634    0.004419   -3.543043
 H     -1.484555    1.038714   -2.352623
 C      0.629179   -1.227773   -3.063967
 H      1.546988   -1.719545   -3.271070
 Cl    -1.419688   -2.333412    2.400454
 Cl    -1.567475   -3.371466   -0.439128
 O      0.573408   -1.870468   -0.154969
 O     -0.269856   -0.266893    1.399631
 C      1.979473   -0.159584    0.258021
 C      0.921388    0.756037   -0.166209
 C     -1.044562    1.795451    0.660730
 C      2.688551   -2.404480    0.599232
 C      3.889102   -1.934474    1.033279
 C      3.198053    0.360966    0.730971
 C      4.173957   -0.558213    1.139483
 C      1.057490    1.676096   -1.213086
 C      0.062642    2.657644   -1.322157
 C     -0.941868    2.719466   -0.331965
 C      3.451305    1.753508    0.847438
 C      5.414384   -0.082283    1.636551
 C      2.112936    1.616882   -2.157264
 C      0.130151    3.584495   -2.393961
 H     -1.639774    3.541491   -0.356248
 C     -1.948475    1.910207    1.870403
 N      1.740363   -1.457840    0.273761
 N     -0.133527    0.775055    0.621099
 C      2.371086   -3.875232    0.421429
 H      4.655840   -2.640129    1.309869
 C      5.642492    1.254852    1.728952
 C      4.642419    2.186003    1.333956
 H      2.693369    2.464686    0.560302
 H      6.166494   -0.800456    1.942702
 H      6.591030    1.621672    2.112878
 H      4.836030    3.250956    1.429680
 C      2.148996    2.508780   -3.179396
 C      1.142669    3.507211   -3.298786
 H     -0.635639    4.347292   -2.477724
 H      2.865450    0.847193   -2.067629
 H      2.945944    2.462426   -3.916495
 H      1.190204    4.214033   -4.123418
 C      1.970292   -4.134326   -1.029050
 C      3.610474   -4.723466    0.727476
 C      1.273740   -4.277112    1.396308
 C     -2.977555    0.797961    1.936511
 C     -1.049469    1.879497    3.108085
 C     -2.694437    3.246720    1.834258
 H      1.786462   -5.196702   -1.171243
 H      1.071416   -3.607068   -1.306969
 H      2.770285   -3.849388   -1.710679
 H      1.080211   -5.343316    1.316827
 H      1.563334   -4.070881    2.424339
 H      0.349066   -3.767929    1.193224
 H      3.365268   -5.771956    0.572257
 H      4.448265   -4.490547    0.072576
 H      3.939218   -4.623352    1.760135
 H     -2.518128   -0.168718    2.020022
 H     -3.605254    0.942984    2.812456
 H     -3.615999    0.798475    1.067610
 H     -0.534780    0.933495    3.200338
 H     -0.310788    2.679129    3.084549
 H     -1.649997    2.020532    4.003828
 H     -3.368610    3.313562    0.983286
 H     -3.300983    3.339472    2.732691
 H     -2.020901    4.101648    1.813320
