61

 Si    -0.260061   -2.517499    0.776599
 O     -1.531701   -2.406383   -0.207713
 C     -2.837268   -1.989626   -0.056301
 C     -2.939745   -0.536997   -0.439255
 H     -3.147208   -2.115937    0.984048
 C     -2.023172   -0.003823   -1.328385
 C     -3.958764    0.265528    0.053250
 C     -2.112558    1.320271   -1.721481
 H     -1.234837   -0.635813   -1.699973
 C     -4.054734    1.592278   -0.337515
 H     -4.680602   -0.146753    0.749407
 C     -3.132289    2.122468   -1.228302
 H     -1.387886    1.725015   -2.420605
 H     -4.856374    2.212861    0.053482
 H     -3.211036    3.159737   -1.539662
 C     -3.710062   -2.847668   -0.944645
 C     -3.650987   -4.264591   -0.553344
 H     -4.752243   -2.509555   -0.900556
 H     -3.364611   -2.745876   -1.975404
 C     -3.593600   -5.415940   -0.218458
 H     -3.556519   -6.438772    0.071990
 Cl    -1.169756   -3.420425    2.378528
 Cl     1.221541   -3.874207    0.580437
 O      0.469668   -1.517722   -0.583095
 O      0.172522   -1.162208    1.737048
 C      2.007034   -0.086105    0.190389
 C      0.848553    0.693043    0.621235
 C     -1.172302    0.702402    1.859706
 C      2.652275   -1.826937   -1.274139
 C      3.962454   -1.487113   -1.112444
 C      3.344628    0.279213    0.430054
 C      4.346772   -0.460221   -0.222260
 C      0.655511    2.029017    0.221314
 C     -0.474538    2.705467    0.711781
 C     -1.366664    2.013696    1.554323
 C      3.700280    1.324849    1.318040
 C      5.706533   -0.130056    0.008758
 C      1.531938    2.689361   -0.677777
 C     -0.695352    4.052864    0.333301
 H     -2.235161    2.510854    1.962146
 C     -2.038775   -0.051674    2.707829
 N      1.711678   -1.147107   -0.535766
 N     -0.057050    0.074217    1.351865
 C      2.170050   -2.792424   -2.215709
 H      4.706519   -2.025444   -1.684783
 C      6.028891    0.878251    0.863666
 C      5.011235    1.612518    1.531443
 H      2.926021    1.874087    1.834165
 H      6.477244   -0.697628   -0.500685
 H      7.071479    1.126133    1.045423
 H      5.288955    2.405102    2.221158
 C      1.288861    3.975378   -1.040323
 C      0.164147    4.671414   -0.519733
 H     -1.562263    4.570805    0.726800
 H      2.383149    2.162709   -1.080585
 H      1.955417    4.479454   -1.735000
 H     -0.008628    5.703146   -0.815434
 C      1.768600   -3.565864   -3.039132
 H      1.421484   -4.258415   -3.771841
 C     -2.781172   -0.652348    3.431877
 H     -3.435519   -1.201007    4.070243
