61

 Si    -0.122749   -2.417186    1.315648
 O     -1.566877   -2.501527    0.595189
 C     -2.006858   -2.298826   -0.706117
 C     -2.470097   -0.878884   -0.826746
 H     -1.189386   -2.458388   -1.404687
 C     -3.530874   -0.432008   -0.055281
 C     -1.821515    0.008623   -1.670229
 C     -3.958675    0.881798   -0.141204
 H     -4.023163   -1.120159    0.617613
 C     -2.243179    1.326250   -1.761332
 H     -0.986218   -0.334284   -2.266127
 C     -3.318165    1.763275   -1.002401
 H     -4.797885    1.216385    0.461509
 H     -1.735246    2.010488   -2.433884
 H     -3.659493    2.790915   -1.081440
 C     -3.080899   -3.321775   -0.991317
 C     -2.504833   -4.677366   -0.991687
 H     -3.548048   -3.132292   -1.965642
 H     -3.853220   -3.260017   -0.223932
 C     -1.999100   -5.766433   -0.990602
 H     -1.573383   -6.741576   -0.989307
 Cl    -0.726277   -3.307550    3.053771
 Cl     1.482380   -3.603426    1.007920
 O      0.303271   -1.422428   -0.155312
 O      0.242330   -0.956136    2.134995
 C      1.824742    0.140076    0.341273
 C      0.670219    0.869336    0.859203
 C     -1.314569    0.736819    2.149206
 C      2.366361   -1.613926   -1.154002
 C      3.660950   -1.190568   -1.195237
 C      3.157745    0.586212    0.380417
 C      4.101428   -0.115787   -0.390757
 C      0.340908    2.163382    0.411761
 C     -0.828878    2.754728    0.919634
 C     -1.640284    2.010547    1.797873
 C      3.568744    1.677907    1.185062
 C      5.457240    0.299056   -0.361147
 C      1.114093    2.861206   -0.551653
 C     -1.186269    4.060583    0.500446
 H     -2.556013    2.430694    2.189464
 C     -2.121307   -0.089840    2.987019
 N      1.501799   -0.964469   -0.305462
 N     -0.139561    0.212133    1.665590
 C      1.802812   -2.644300   -1.974644
 H      4.349033   -1.700895   -1.856415
 C      5.833560    1.350213    0.416768
 C      4.876627    2.046442    1.204648
 H      2.840207    2.196250    1.792571
 H      6.182957   -0.238734   -0.960984
 H      6.874478    1.662115    0.444107
 H      5.199373    2.875109    1.829279
 C      0.741269    4.104275   -0.951238
 C     -0.419960    4.719041   -0.409186
 H     -2.082210    4.513340    0.909150
 H      1.992403    2.397946   -0.972400
 H      1.331514    4.636170   -1.692692
 H     -0.697091    5.718226   -0.735608
 C      1.300999   -3.475215   -2.678322
 H      0.861972   -4.219340   -3.303543
 C     -2.828873   -0.763537    3.681089
 H     -3.448257   -1.372669    4.299333
