61

 Si    -1.346657   -0.696067   -2.269961
 O     -1.826768   -1.645860   -1.039215
 C     -1.817315   -1.643081    0.339519
 C     -2.548010   -0.455308    0.878853
 H     -0.791385   -1.600395    0.697258
 C     -3.793724   -0.140058    0.366153
 C     -1.979514    0.356549    1.845083
 C     -4.474708    0.975317    0.818600
 H     -4.231519   -0.774132   -0.392556
 C     -2.653089    1.479298    2.298992
 H     -1.006985    0.111703    2.252582
 C     -3.903852    1.789746    1.788283
 H     -5.456480    1.206877    0.416209
 H     -2.203728    2.109904    3.061074
 H     -4.437485    2.664049    2.149689
 C     -2.432223   -2.943967    0.803516
 C     -1.627768   -4.115400    0.419084
 H     -2.544422   -2.945086    1.894936
 H     -3.424276   -3.037487    0.360083
 C     -0.972879   -5.077961    0.124329
 H     -0.413840   -5.944150   -0.134816
 Cl    -2.039115    0.863065   -3.360522
 Cl    -1.825469   -2.104492   -3.667354
 O     -1.046144    0.468965   -0.917323
 O      0.356660   -0.818260   -2.395668
 C      1.076840    1.101499   -0.817616
 C      1.282969   -0.284382   -0.406270
 C      1.096814   -2.558429   -1.047330
 C     -0.603254    2.728902   -1.146271
 C      0.356608    3.691627   -1.276409
 C      2.105876    2.044205   -0.969413
 C      1.730026    3.373804   -1.229667
 C      1.779594   -0.630868    0.859230
 C      1.915890   -1.999543    1.155387
 C      1.596437   -2.944144    0.160555
 C      3.477992    1.695020   -0.894601
 C      2.742067    4.353289   -1.403858
 C      2.088182    0.340536    1.847195
 C      2.376252   -2.385156    2.440346
 H      1.734022   -4.000639    0.341625
 C      0.812925   -3.459930   -2.114467
 N     -0.190175    1.429171   -0.985150
 N      0.906209   -1.215411   -1.260598
 C     -2.005490    3.007213   -1.098762
 H      0.035183    4.715936   -1.412226
 C      4.053367    4.000047   -1.328736
 C      4.426396    2.651093   -1.073542
 H      3.759174    0.667743   -0.710960
 H      2.450392    5.378999   -1.600254
 H      4.828350    4.749615   -1.466702
 H      5.479856    2.388027   -1.027225
 C      2.519121   -0.055642    3.072008
 C      2.668188   -1.438576    3.372193
 H      2.481905   -3.441014    2.662794
 H      1.965582    1.389338    1.622213
 H      2.748467    0.684288    3.834198
 H      3.015051   -1.734863    4.359031
 C     -3.165384    3.301135   -1.031367
 H     -4.195953    3.563057   -0.973394
 C      0.631623   -4.248470   -2.998446
 H      0.459591   -4.941248   -3.790343
