61

 Si    -0.512089   -2.590998    0.301363
 O     -1.719633   -1.663500    0.840140
 C     -3.009895   -1.376115    0.418657
 C     -2.933706   -0.092035   -0.360399
 H     -3.349985   -2.168191   -0.252461
 C     -3.600205    1.068289   -0.005339
 C     -2.122197   -0.084850   -1.486592
 C     -3.465196    2.218659   -0.770829
 H     -4.244317    1.084530    0.863931
 C     -1.973987    1.059262   -2.246674
 H     -1.614218   -0.991445   -1.770425
 C     -2.651438    2.217998   -1.891744
 H     -4.004386    3.117751   -0.487161
 H     -1.341261    1.041924   -3.128398
 H     -2.550854    3.115935   -2.493103
 C     -3.904886   -1.360410    1.629187
 C     -3.825784   -2.645705    2.338042
 H     -3.599724   -0.569186    2.311488
 H     -4.945220   -1.176280    1.335644
 C     -3.731937   -3.700215    2.903584
 H     -3.671298   -4.635872    3.407008
 Cl     0.412369   -4.085797    1.285072
 Cl    -1.573400   -3.734453   -1.029088
 O      0.307868   -1.847442   -1.003647
 O      0.508355   -1.502507    1.311877
 C      1.904938   -0.348536   -0.433568
 C      0.822504    0.410523    0.189479
 C     -0.644241    0.354369    2.044953
 C      2.484234   -2.385383   -1.509980
 C      3.797302   -2.023380   -1.511706
 C      3.252490    0.056339   -0.381707
 C      4.216701   -0.802119   -0.942581
 C      0.482225    1.739657   -0.107815
 C     -0.440546    2.375873    0.739594
 C     -0.968310    1.660738    1.834423
 C      3.665227    1.259250    0.246935
 C      5.583693   -0.427597   -0.902169
 C      1.020251    2.433545   -1.220094
 C     -0.791215    3.724925    0.482081
 H     -1.641383    2.142663    2.530607
 C     -1.084124   -0.435659    3.148394
 N      1.577502   -1.515930   -0.950225
 N      0.219388   -0.239813    1.164966
 C      1.972182   -3.604360   -2.054095
 H      4.516940   -2.702374   -1.949922
 C      5.955338    0.739338   -0.310063
 C      4.981983    1.590829    0.279969
 H      2.930154    1.902445    0.705131
 H      6.320361   -1.088980   -1.344133
 H      7.003994    1.023940   -0.276899
 H      5.298903    2.510478    0.764450
 C      0.655518    3.720838   -1.451913
 C     -0.255899    4.379070   -0.582615
 H     -1.493407    4.217936    1.144105
 H      1.707949    1.927125   -1.882422
 H      1.059654    4.255429   -2.307445
 H     -0.528419    5.412609   -0.779884
 C      1.539878   -4.628274   -2.503390
 H      1.149521   -5.540582   -2.894050
 C     -1.420784   -1.104468    4.083616
 H     -1.733478   -1.689811    4.917842
