61

 Si    -0.956448   -1.150896   -0.744235
 O     -2.410370   -0.755471   -0.114346
 C     -3.756479   -0.819570   -0.393456
 C     -4.464758    0.157447    0.502312
 H     -3.932554   -0.541728   -1.437738
 C     -3.934965    0.430995    1.752251
 C     -5.631383    0.793956    0.099127
 C     -4.548451    1.347968    2.590851
 H     -3.026120   -0.067770    2.053480
 C     -6.251706    1.711029    0.935332
 H     -6.054456    0.579376   -0.876808
 C     -5.708949    1.993131    2.181677
 H     -4.120653    1.559146    3.566659
 H     -7.161579    2.208314    0.610548
 H     -6.193004    2.712763    2.836015
 C     -4.283435   -2.224786   -0.169925
 C     -3.859655   -3.168842   -1.218177
 H     -5.379063   -2.212586   -0.156706
 H     -3.933630   -2.577583    0.800762
 C     -3.541892   -3.930791   -2.090353
 H     -3.266400   -4.610306   -2.859828
 Cl    -1.413728   -0.870219   -2.698294
 Cl    -0.788940   -2.903599    0.249926
 O     -0.295728    0.109040    0.224202
 O      0.731551   -1.277415   -1.382124
 C      1.771023    0.804988   -0.354638
 C      2.223793   -0.502988    0.113912
 C      2.217972   -2.797959   -0.462411
 C     -0.117087    2.187588   -0.744835
 C      0.686315    3.144239   -1.289569
 C      2.640648    1.751644   -0.928941
 C      2.078625    2.948452   -1.409364
 C      3.177966   -0.704647    1.124754
 C      3.644853   -2.015687    1.325210
 C      3.173864   -3.042004    0.478089
 C      4.031898    1.519376   -1.078320
 C      2.922685    3.918797   -2.006416
 C      3.646852    0.349611    1.949106
 C      4.598488   -2.257018    2.347222
 H      3.568195   -4.046311    0.560141
 C      1.745894   -3.757963   -1.413777
 N      0.471939    1.022546   -0.312795
 N      1.716218   -1.520647   -0.556015
 C     -1.528696    2.327503   -0.573416
 H      0.227691    4.061172   -1.635557
 C      4.256784    3.681705   -2.127343
 C      4.817488    2.460850   -1.662979
 H      4.459331    0.589256   -0.736870
 H      2.484461    4.842837   -2.366433
 H      4.903038    4.424256   -2.588519
 H      5.882415    2.281326   -1.784097
 C      4.551393    0.088852    2.928419
 C      5.038084   -1.232680    3.127015
 H      4.963033   -3.267405    2.495089
 H      3.267788    1.350987    1.802317
 H      4.905362    0.890915    3.570608
 H      5.765452   -1.419757    3.912873
 C     -2.702243    2.527498   -0.437007
 H     -3.746036    2.691895   -0.311589
 C      1.380242   -4.544196   -2.241499
 H      1.057070   -5.248634   -2.973518
