61

 Si    -1.085362   -1.806459   -0.301494
 O     -1.941959   -0.439794   -0.284529
 C     -2.995521    0.090625   -1.016131
 C     -4.193510    0.094769   -0.115105
 H     -3.193233   -0.558074   -1.873082
 C     -4.533591   -1.117499    0.472915
 C     -4.929103    1.226235    0.193273
 C     -5.586629   -1.199895    1.364160
 H     -3.961923   -2.000416    0.226975
 C     -5.992736    1.149677    1.083538
 H     -4.687355    2.179442   -0.258066
 C     -6.320827   -0.060290    1.674149
 H     -5.838173   -2.154980    1.816059
 H     -6.564680    2.043806    1.315239
 H     -7.151372   -0.119174    2.372048
 C     -2.554739    1.436069   -1.533496
 C     -1.283780    1.308055   -2.262086
 H     -3.309364    1.858087   -2.207321
 H     -2.421102    2.131988   -0.708030
 C     -0.246592    1.170573   -2.849808
 H      0.658598    1.062174   -3.394197
 Cl    -1.232982   -3.337003    1.003815
 Cl    -1.991076   -2.714470   -1.900594
 O      0.367295   -1.656052   -1.190868
 O     -0.149500   -0.993757    1.007882
 C      2.135004   -0.859307   -0.021478
 C      1.361983    0.375556    0.088429
 C     -0.558136    1.276647    1.134128
 C      2.105078   -3.110052   -0.776322
 C      3.337618   -3.317687   -0.234075
 C      3.395005   -1.031502    0.580321
 C      4.009090   -2.292532    0.464776
 C      1.779679    1.637566   -0.360630
 C      0.976597    2.741139   -0.023848
 C     -0.171498    2.531756    0.767567
 C      4.032468   -0.004634    1.323450
 C      5.276068   -2.502196    1.066291
 C      2.937548    1.818679   -1.158725
 C      1.354085    4.030360   -0.479927
 H     -0.774042    3.369988    1.091664
 C     -1.685988    0.979272    1.955100
 N      1.539223   -1.864924   -0.631014
 N      0.215176    0.225041    0.722546
 C      1.358313   -4.093577   -1.496514
 H      3.787740   -4.295687   -0.342777
 C      5.876734   -1.498861    1.761079
 C      5.241569   -0.234164    1.897792
 H      3.547442    0.952719    1.436755
 H      5.748498   -3.472870    0.966015
 H      6.846650   -1.661500    2.224344
 H      5.728893    0.549787    2.471255
 C      3.268151    3.062098   -1.593684
 C      2.467101    4.184753   -1.245874
 H      0.737540    4.881400   -0.213396
 H      3.539055    0.962180   -1.428295
 H      4.148147    3.205736   -2.215095
 H      2.751516    5.172047   -1.600786
 C      0.733356   -4.921659   -2.097122
 H      0.167631   -5.655122   -2.625379
 C     -2.618546    0.735718    2.666052
 H     -3.455533    0.530197    3.292134
