61

 Si     1.213441   -1.489338   -0.063201
 O      1.854213   -0.012232   -0.115814
 C      2.816355    0.832720    0.392185
 C      4.193872    0.438759   -0.060301
 H      2.586155    1.816551   -0.038007
 C      4.366346   -0.654527   -0.890090
 C      5.304108    1.190224    0.307871
 C      5.627324   -1.009055   -1.341689
 H      3.514313   -1.239644   -1.188134
 C      6.567916    0.841467   -0.139992
 H      5.184690    2.058454    0.945324
 C      6.734184   -0.262819   -0.965460
 H      5.741087   -1.874052   -1.988391
 H      7.427101    1.436129    0.157377
 H      7.724817   -0.538819   -1.315185
 C      2.686765    0.940026    1.895295
 C      1.306122    1.254639    2.296304
 H      3.347936    1.727777    2.271816
 H      2.974020   -0.000044    2.362376
 C      0.183813    1.505556    2.641057
 H     -0.791335    1.735364    2.988176
 Cl     1.403652   -2.994903   -1.394171
 Cl     2.395290   -2.284105    1.404088
 O     -0.144382   -1.504227    0.970829
 O      0.064610   -0.807113   -1.271477
 C     -2.101005   -0.932321   -0.016326
 C     -1.493915    0.384256   -0.198896
 C      0.209001    1.494457   -1.409733
 C     -1.731992   -3.154910    0.733107
 C     -2.978479   -3.512518    0.314838
 C     -3.383607   -1.259242   -0.492501
 C     -3.830555   -2.582100   -0.316235
 C     -2.006953    1.593154    0.296679
 C     -1.356588    2.777726   -0.090642
 C     -0.265014    2.698349   -0.981407
 C     -4.206173   -0.323627   -1.171756
 C     -5.115741   -2.946608   -0.792364
 C     -3.106473    1.645875    1.190583
 C     -1.828173    4.016713    0.414743
 H      0.216956    3.598529   -1.339825
 C      1.277672    1.319386   -2.340203
 N     -1.333797   -1.854116    0.531994
 N     -0.406649    0.363775   -0.943577
 C     -0.805516   -4.035229    1.373575
 H     -3.297076   -4.535303    0.467501
 C     -5.894262   -2.029685   -1.427357
 C     -5.428993   -0.700837   -1.626391
 H     -3.850162    0.682394   -1.332822
 H     -5.458419   -3.964703   -0.645722
 H     -6.877921   -2.310885   -1.794967
 H     -6.058274    0.012943   -2.151215
 C     -3.530494    2.844834    1.667694
 C     -2.884008    4.048101    1.271408
 H     -1.329105    4.929936    0.110579
 H     -3.588060    0.728673    1.498420
 H     -4.366696    2.890659    2.360399
 H     -3.240688    4.997683    1.662103
 C     -0.028127   -4.776072    1.906345
 H      0.671951   -5.431088    2.373131
 C      2.167201    1.167984   -3.128391
 H      2.957719    1.047034   -3.833555
