61

 Si    -1.433884   -0.227215    1.611659
 O     -1.786237    0.949651    0.550206
 C     -3.028343    1.374284    0.091499
 C     -3.713583    0.194373   -0.531728
 H     -3.621135    1.738093    0.935089
 C     -3.098253   -0.466931   -1.583761
 C     -4.916448   -0.280603   -0.034301
 C     -3.683629   -1.584289   -2.147803
 H     -2.148422   -0.109263   -1.951082
 C     -5.507049   -1.405453   -0.592900
 H     -5.394493    0.223574    0.798455
 C     -4.893907   -2.056012   -1.652073
 H     -3.199280   -2.084803   -2.980175
 H     -6.450344   -1.771490   -0.197910
 H     -5.361591   -2.930722   -2.095535
 C     -2.799954    2.499013   -0.887955
 C     -2.236627    3.701479   -0.250485
 H     -3.746490    2.781155   -1.365333
 H     -2.119604    2.156065   -1.668038
 C     -1.800610    4.695719    0.263333
 H     -1.438141    5.588727    0.712046
 Cl    -2.048333   -2.124296    1.923438
 Cl    -2.442496    0.530335    3.225765
 O     -0.544522   -0.862550    0.122037
 O      0.121110    0.210307    2.172399
 C      1.636730   -1.036288    0.515787
 C      1.559930    0.420280    0.447935
 C      0.576822    2.356285    1.396394
 C      0.407557   -2.988029    0.012039
 C      1.521964   -3.744375    0.241313
 C      2.804763   -1.764621    0.786793
 C      2.733108   -3.164050    0.671646
 C      2.217269    1.172345   -0.535736
 C      2.012248    2.564211   -0.536201
 C      1.201072    3.131552    0.465253
 C      4.014281   -1.144445    1.190325
 C      3.888006   -3.937731    0.957630
 C      3.028322    0.575966   -1.536963
 C      2.638558    3.353193   -1.535244
 H      1.061368    4.201911    0.517135
 C     -0.185083    2.882554    2.480280
 N      0.492262   -1.634564    0.237324
 N      0.753997    0.998335    1.315353
 C     -0.806792   -3.520665   -0.529734
 H      1.454769   -4.811678    0.075588
 C      5.039412   -3.325970    1.344804
 C      5.102685   -1.909557    1.465018
 H      4.055412   -0.068923    1.289996
 H      3.832125   -5.016667    0.865594
 H      5.922766   -3.918513    1.568614
 H      6.030723   -1.442138    1.783402
 C      3.611025    1.353398   -2.484839
 C      3.415978    2.763056   -2.482006
 H      2.483072    4.426074   -1.528057
 H      3.171218   -0.494171   -1.541456
 H      4.229934    0.901485   -3.255358
 H      3.894163    3.367843   -3.248519
 C     -1.777679   -4.018134   -1.026777
 H     -2.644166   -4.457594   -1.462963
 C     -0.775390    3.380647    3.396342
 H     -1.310163    3.809829    4.212442
