61

 Si    -1.331647   -2.298818    0.009340
 O     -2.285655   -1.028778    0.301064
 C     -3.290801   -0.365474   -0.387942
 C     -2.647443    0.824979   -1.043666
 H     -3.680392   -1.022636   -1.168786
 C     -3.004660    2.137303   -0.785412
 C     -1.619962    0.570666   -1.941779
 C     -2.350231    3.182369   -1.423609
 H     -3.807247    2.359908   -0.094644
 C     -0.957076    1.605775   -2.572465
 H     -1.351932   -0.451101   -2.153423
 C     -1.324688    2.920058   -2.316941
 H     -2.649944    4.206326   -1.220345
 H     -0.162405    1.385879   -3.278293
 H     -0.817034    3.737131   -2.819680
 C     -4.402685   -0.063917    0.581183
 C     -4.882168   -1.303773    1.208445
 H     -5.238997    0.424525    0.066999
 H     -4.047788    0.605194    1.362877
 C     -5.245087   -2.329520    1.715162
 H     -5.588264   -3.232861    2.161013
 Cl    -1.179728   -3.992664    1.088403
 Cl    -2.334729   -3.073023   -1.602442
 O     -0.032067   -1.867174   -1.016893
 O     -0.304656   -1.569174    1.298117
 C      1.756914   -0.929941    0.004516
 C      0.839433    0.135994    0.402120
 C     -0.979238    0.564051    1.853222
 C      1.931421   -3.061304   -1.029613
 C      3.250978   -3.125938   -0.698129
 C      3.108320   -0.963406    0.398239
 C      3.870813   -2.087433    0.028901
 C      1.000443    1.500384    0.113826
 C      0.136235    2.403321    0.755870
 C     -0.832344    1.903145    1.650394
 C      3.701841    0.060917    1.179993
 C      5.233502   -2.156186    0.414934
 C      1.976412    1.976858   -0.796549
 C      0.284102    3.790546    0.504756
 H     -1.475699    2.580014    2.196172
 C     -1.891111   -0.034642    2.772650
 N      1.225164   -1.945432   -0.645777
 N     -0.149505   -0.281277    1.167573
 C      1.220321   -4.068989   -1.752920
 H      3.813160   -4.001541   -0.995153
 C      5.786971   -1.154210    1.149850
 C      5.006832   -0.033357    1.544579
 H      3.109542    0.907711    1.490044
 H      5.817822   -3.020278    0.119358
 H      6.830986   -1.209455    1.447797
 H      5.460840    0.749045    2.146784
 C      2.085633    3.309941   -1.030548
 C      1.233747    4.230776   -0.362606
 H     -0.374307    4.486482    1.011282
 H      2.618197    1.272637   -1.306707
 H      2.827347    3.680311   -1.733219
 H      1.343375    5.294720   -0.555981
 C      0.619473   -4.914900   -2.353404
 H      0.077105   -5.666930   -2.880312
 C     -2.630087   -0.552601    3.560630
 H     -3.297352   -1.000235    4.261139
