61

 Si    -1.349847   -0.150974   -1.686841
 O     -1.627753   -1.221827   -0.498305
 C     -2.838006   -1.736352   -0.046714
 C     -3.694429   -0.581519    0.381083
 H     -3.329908   -2.274344   -0.861571
 C     -3.230277    0.276209    1.366782
 C     -4.909040   -0.324112   -0.234033
 C     -3.977389    1.373673    1.749839
 H     -2.271595    0.086897    1.825227
 C     -5.661706    0.779537    0.142182
 H     -5.269868   -0.983166   -1.016109
 C     -5.199100    1.627125    1.136484
 H     -3.609714    2.029935    2.532211
 H     -6.613063    0.974448   -0.344372
 H     -5.793278    2.485503    1.437556
 C     -2.542275   -2.691881    1.082833
 C     -1.801872   -3.885073    0.638289
 H     -3.478034   -3.027729    1.546571
 H     -1.958858   -2.171650    1.843091
 C     -1.220769   -4.874500    0.283330
 H     -0.727900   -5.764890   -0.024029
 Cl    -2.151840    1.605668   -2.274545
 Cl    -2.169659   -1.219573   -3.230589
 O     -0.631083    0.766142   -0.254028
 O      0.275206   -0.463703   -2.116453
 C      1.534604    1.156616   -0.571509
 C      1.624043   -0.278562   -0.317743
 C      0.930323   -2.423447   -1.047034
 C      0.059195    2.989631   -0.378765
 C      1.089405    3.843146   -0.655813
 C      2.623713    1.983897   -0.883773
 C      2.382951    3.367354   -0.954341
 C      2.305731   -0.815858    0.783014
 C      2.265642   -2.211604    0.955564
 C      1.585823   -2.994412    0.002951
 C      3.918749    1.472039   -1.150780
 C      3.454968    4.235830   -1.287037
 C      2.981746   -0.004438    1.732103
 C      2.921384   -2.787199    2.074386
 H      1.574673   -4.071883    0.085196
 C      0.296418   -3.170390   -2.082667
 N      0.314038    1.639612   -0.422718
 N      0.943401   -1.054841   -1.136618
 C     -1.238764    3.431656    0.035766
 H      0.888991    4.906353   -0.633040
 C      4.690447    3.727126   -1.541452
 C      4.924884    2.325234   -1.475149
 H      4.090419    0.405671   -1.108664
 H      3.268965    5.302862   -1.337549
 H      5.510380    4.391814   -1.801107
 H      5.917621    1.939355   -1.691188
 C      3.595296   -0.580349    2.797069
 C      3.567874   -1.992842    2.968770
 H      2.893546   -3.863633    2.200191
 H      2.997671    1.067418    1.603648
 H      4.110204    0.036850    3.528449
 H      4.068276   -2.434508    3.826968
 C     -2.288569    3.863911    0.420746
 H     -3.224431    4.244577    0.757604
 C     -0.180919   -3.846023   -2.949489
 H     -0.616642   -4.434812   -3.723880
