59

 Si     0.398989   -2.271425    1.294950
 O     -0.120538   -1.750722   -0.117497
 C     -1.222959   -2.213264   -0.871628
 C     -2.316272   -1.202600   -0.725271
 H     -1.556610   -3.148006   -0.414855
 C     -2.494214   -0.156906   -1.616050
 C     -3.159785   -1.306958    0.373792
 C     -3.507266    0.766940   -1.418805
 H     -1.842519   -0.056102   -2.469219
 C     -4.173462   -0.386588    0.577518
 H     -3.028098   -2.121178    1.074963
 C     -4.351682    0.653088   -0.323507
 H     -3.641084    1.574886   -2.131022
 H     -4.829023   -0.488183    1.437641
 H     -5.151671    1.372776   -0.174320
 C     -0.758515   -2.505430   -2.269055
 C      0.345086   -3.476079   -2.245245
 H     -0.414843   -1.595377   -2.745826
 H     -1.587432   -2.915860   -2.858043
 C      1.255389   -4.256186   -2.189556
 H      2.054616   -4.957962   -2.158902
 Cl    -0.822408   -3.527379    2.218391
 Cl     2.257651   -2.961107    1.306999
 O      0.368863    0.213616   -1.860872
 O      0.498820   -0.810569    2.118147
 C      1.519436    0.439766    0.048882
 C      0.275785    0.915399    0.628882
 C     -1.358062    0.555132    2.319191
 C      2.516169   -0.544758   -1.845528
 C      3.688725   -0.685866   -1.177238
 C      2.726374    0.339595    0.781907
 C      3.837273   -0.236369    0.153603
 C     -0.428663    2.043934    0.166803
 C     -1.634102    2.395536    0.801592
 C     -2.074835    1.624299    1.903084
 N      1.415071    0.047445   -1.226330
 N     -0.207074    0.219624    1.642288
 C     -1.729754   -0.270518    3.435424
 C      2.311498   -0.965559   -3.205480
 N     -2.049669   -0.922583    4.327696
 N      2.134378   -1.301207   -4.291471
 H     -2.983703    1.880274    2.431465
 H      4.519260   -1.147520   -1.698457
 C      5.056241   -0.362188    0.860300
 H      5.907740   -0.810959    0.360667
 C      2.844130    0.803888    2.106020
 H      1.999125    1.260770    2.593849
 C      0.058481    2.832070   -0.897616
 C     -2.357530    3.514864    0.342351
 C     -1.882085    4.247893   -0.705494
 H     -2.438815    5.112073   -1.060150
 C     -0.657538    3.905654   -1.328815
 H     -0.285779    4.511834   -2.150299
 C      5.149288    0.079060    2.145668
 H      6.082742   -0.014643    2.692963
 C      4.026663    0.672393    2.770811
 H      4.111340    1.031939    3.793153
 H      0.993019    2.574701   -1.366158
 H     -3.286162    3.780601    0.833711
