59

 Si    -1.537157   -2.264067    0.225643
 O     -2.402555   -0.967733    0.620594
 C     -3.322432    0.001430    0.260682
 C     -2.646622    0.990847   -0.647160
 H     -3.592798    0.508059    1.192139
 C     -1.803908    0.542759   -1.648383
 C     -2.833329    2.355691   -0.478117
 C     -1.130728    1.439503   -2.458701
 H     -1.680832   -0.514669   -1.797592
 C     -2.175046    3.260041   -1.297248
 H     -3.501644    2.717536    0.296020
 C     -1.314417    2.803679   -2.285035
 H     -0.471835    1.069147   -3.238027
 H     -2.334320    4.325749   -1.160652
 H     -0.795971    3.510695   -2.925513
 C     -4.590499   -0.574220   -0.320204
 C     -5.187621   -1.534314    0.619965
 H     -4.386900   -1.069166   -1.267912
 H     -5.300444    0.241655   -0.504520
 C     -5.641210   -2.311877    1.413693
 H     -6.060542   -3.002559    2.106275
 Cl    -1.394389   -3.960903    1.288957
 Cl    -2.627057   -2.950509   -1.351511
 O     -0.250653   -1.913765   -0.864121
 O     -0.365221   -1.587696    1.454623
 C      1.657572   -1.099556    0.039315
 C      0.840811    0.029083    0.479678
 C     -0.847411    0.590085    2.022507
 C      1.622508   -3.236458   -0.974163
 C      2.944192   -3.410830   -0.715784
 C      3.026834   -1.232919    0.357458
 C      3.681411   -2.416522   -0.032074
 C      1.069875    1.381862    0.165537
 C      0.311111    2.345956    0.850206
 C     -0.627839    1.914474    1.813116
 N      1.013726   -2.074225   -0.565590
 N     -0.128222   -0.322008    1.300366
 C     -1.770298    0.067150    2.985738
 C      0.817864   -4.192947   -1.684390
 N     -2.510314   -0.331970    3.769734
 N      0.215612   -4.978131   -2.270998
 H     -1.194852    2.631813    2.392556
 H      3.418609   -4.329202   -1.038865
 C      5.049653   -2.589423    0.283082
 H      5.548704   -3.500888   -0.026877
 C      3.736472   -0.248873    1.085668
 H      3.230878    0.647565    1.409818
 C      2.006330    1.784154   -0.814440
 C      0.518983    3.716068    0.565435
 C      1.428627    4.086501   -0.377151
 H      1.583858    5.138808   -0.600561
 C      2.175623    3.107312   -1.081118
 H      2.887694    3.421320   -1.839974
 C      5.718380   -1.622910    0.972496
 H      6.768913   -1.756548    1.218218
 C      5.050310   -0.441221    1.383926
 H      5.594686    0.313050    1.946210
 H      2.569337    1.036773   -1.355461
 H     -0.061508    4.457345    1.102486
