59

 Si    -0.904945   -0.577535   -1.974986
 O     -1.059588   -0.729592   -0.404484
 C     -2.039968   -1.075702    0.551308
 C     -3.119810   -0.045095    0.526695
 H     -1.517234   -1.046215    1.505336
 C     -3.822106    0.190515   -0.647562
 C     -3.411032    0.698858    1.657231
 C     -4.796439    1.168541   -0.698707
 H     -3.606363   -0.394497   -1.529313
 C     -4.395152    1.676365    1.615629
 H     -2.862174    0.526060    2.574127
 C     -5.085452    1.915507    0.437635
 H     -5.334767    1.346943   -1.624888
 H     -4.608599    2.260805    2.505109
 H     -5.851416    2.685062    0.402281
 C     -2.555079   -2.470133    0.291759
 C     -1.489403   -3.486212    0.309330
 H     -3.058052   -2.511061   -0.674028
 H     -3.290932   -2.723849    1.064536
 C     -0.644371   -4.339125    0.317420
 H      0.066011   -5.128916    0.320922
 Cl    -1.251155    1.236371   -2.701154
 Cl    -1.796299   -1.949747   -3.088547
 O     -0.042904    0.596206    1.746432
 O      0.763924   -0.757946   -2.064902
 C      1.201908    0.924011   -0.097888
 C      1.627770   -0.457802    0.035043
 C      1.747788   -2.580840   -1.033353
 C     -0.193325    2.631991    0.730606
 C      0.207916    3.465760   -0.261797
 C      1.675268    1.766629   -1.134822
 C      1.158124    3.064105   -1.225843
 C      2.297294   -0.970093    1.164748
 C      2.647429   -2.333372    1.181737
 C      2.369805   -3.123509    0.038976
 N      0.313067    1.331313    0.819951
 N      1.367862   -1.258870   -0.982239
 C      1.456129   -3.299757   -2.243723
 C     -1.111799    3.025996    1.765550
 N      1.235274   -3.888931   -3.206951
 N     -1.837321    3.354176    2.595447
 H      2.663070   -4.164754    0.000809
 H     -0.211409    4.464873   -0.285757
 C      1.594952    3.926524   -2.258171
 H      1.181725    4.927620   -2.314630
 C      2.648047    1.347568   -2.062473
 H      3.068280    0.358556   -1.995075
 C      2.638594   -0.145429    2.258208
 C      3.294381   -2.867418    2.315510
 C      3.588909   -2.058004    3.374647
 H      4.089197   -2.468752    4.248425
 C      3.265791   -0.679927    3.341387
 H      3.526669   -0.046930    4.184997
 C      2.522705    3.498029   -3.158959
 H      2.862420    4.155101   -3.954214
 C      3.056765    2.192205   -3.051338
 H      3.806926    1.860220   -3.764570
 H      2.395596    0.903118    2.231398
 H      3.557495   -3.919013    2.327185
