59

 Si    -1.183392   -1.925541    0.057810
 O     -2.008570   -0.568065   -0.215319
 C     -3.023215   -0.187353   -1.093019
 C     -4.237386    0.072286   -0.258197
 H     -3.219606   -1.016658   -1.776051
 C     -4.652781   -0.962085    0.571249
 C     -4.914682    1.279131   -0.228259
 C     -5.721668   -0.791805    1.429442
 H     -4.129651   -1.906990    0.539832
 C     -5.993574    1.454290    0.627529
 H     -4.616544    2.094705   -0.873711
 C     -6.395212    0.423379    1.460950
 H     -6.033451   -1.609233    2.072696
 H     -6.520618    2.403956    0.640232
 H     -7.237548    0.562578    2.132482
 C     -2.512270    0.978596   -1.900663
 C     -1.214300    0.653199   -2.511457
 H     -2.393807    1.857176   -1.269841
 H     -3.223965    1.235918   -2.693698
 C     -0.154910    0.363095   -2.994984
 H      0.768003    0.109791   -3.454802
 Cl    -1.336906   -3.154866    1.644174
 Cl    -2.031602   -3.129627   -1.348721
 O      0.312717   -1.959762   -0.786870
 O     -0.261551   -0.852313    1.209857
 C      2.055491   -0.959418    0.261462
 C      1.304604    0.282096    0.087090
 C     -0.639931    1.388476    0.825820
 C      2.010240   -3.306868   -0.018734
 C      3.207440   -3.431653    0.610286
 C      3.288668   -1.027760    0.943922
 C      3.874432   -2.295017    1.121865
 C      1.755048    1.425477   -0.598462
 C      0.952084    2.577889   -0.536644
 C     -0.234175    2.540844    0.230134
 N      1.457493   -2.055969   -0.154523
 N      0.132582    0.268204    0.687892
 C     -1.812310    1.270936    1.640461
 C      1.294221   -4.417174   -0.585633
 N     -2.743434    1.202315    2.310028
 N      0.768271   -5.333546   -1.040478
 H     -0.843951    3.427959    0.347745
 H      3.636257   -4.420500    0.715728
 C      5.102680   -2.400654    1.815992
 H      5.551649   -3.379533    1.942960
 C      3.918673    0.117237    1.487109
 H      3.457705    1.086744    1.375763
 C      2.944261    1.432271   -1.364435
 C      1.358212    3.740009   -1.236025
 C      2.504853    3.728001   -1.970707
 H      2.813198    4.617505   -2.514137
 C      3.305681    2.557970   -2.037832
 H      4.213228    2.565205   -2.636134
 C      5.699571   -1.284194    2.319647
 H      6.641519   -1.364873    2.856410
 C      5.095607   -0.010645    2.158026
 H      5.578058    0.867553    2.579260
 H      3.548837    0.538283   -1.423028
 H      0.739725    4.629028   -1.181492
