59

 Si    -0.937918   -2.608358    0.096708
 O     -2.083323   -1.532645    0.466957
 C     -3.239453   -1.087046   -0.168183
 C     -2.886485    0.225823   -0.808871
 H     -3.503148   -1.795058   -0.956161
 C     -1.882364    0.207961   -1.767707
 C     -3.483692    1.431312   -0.482275
 C     -1.480372    1.371722   -2.394874
 H     -1.427763   -0.733193   -2.031370
 C     -3.091935    2.603320   -1.115709
 H     -4.272437    1.467094    0.258060
 C     -2.090511    2.576853   -2.072765
 H     -0.702206    1.335867   -3.150685
 H     -3.579129    3.539794   -0.859518
 H     -1.791285    3.491950   -2.573916
 C     -4.357380   -1.064746    0.839172
 C     -4.529781   -2.400008    1.427113
 H     -5.294044   -0.755836    0.359856
 H     -4.138857   -0.358263    1.637849
 C     -4.636676   -3.498805    1.896955
 H     -4.750393   -4.469438    2.318344
 Cl    -0.334167   -4.210627    1.149139
 Cl    -1.859500   -3.568835   -1.445496
 O      0.203476   -1.936493   -1.002044
 O      0.019028   -1.660967    1.327544
 C      1.873167   -0.716429   -0.077670
 C      0.819462    0.194694    0.364684
 C     -0.985938    0.337492    1.871000
 C      2.334605   -2.781666   -1.134783
 C      3.659536   -2.654600   -0.866391
 C      3.234599   -0.540964    0.252847
 C      4.145172   -1.534766   -0.152484
 C      0.739438    1.567599    0.064453
 C     -0.236495    2.323940    0.735479
 C     -1.078491    1.677462    1.666893
 N      1.472178   -1.801291   -0.705471
 N     -0.053435   -0.374997    1.169355
 C     -1.762953   -0.389517    2.829563
 C      1.775363   -3.879200   -1.876014
 N     -2.376187   -0.950916    3.623270
 N      1.371810   -4.765099   -2.488901
 H     -1.809446    2.239318    2.233879
 H      4.333688   -3.431771   -1.204575
 C      5.514140   -1.398275    0.176547
 H      6.210531   -2.164549   -0.145543
 C      3.695296    0.562691    1.009205
 H      2.995914    1.312774    1.344718
 C      1.583579    2.187219   -0.885859
 C     -0.334926    3.710640    0.472806
 C      0.492498    4.293153   -0.437702
 H      0.413752    5.357579   -0.643042
 C      1.456896    3.518985   -1.132692
 H      2.097953    3.997981   -1.868364
 C      5.939069   -0.320789    0.894354
 H      6.990335   -0.217283    1.151251
 C      5.015779    0.667765    1.321201
 H      5.369035    1.512772    1.906509
 H      2.315159    1.595997   -1.418258
 H     -1.080768    4.292671    1.001608
