59

 Si    -0.997917   -1.189603   -0.699398
 O     -2.925923   -1.101113   -0.393190
 C     -3.770138   -1.286447    0.470912
 C     -5.176970   -0.955491    0.313798
 H     -3.477467   -1.719496    1.435417
 C     -5.633392   -0.421026   -0.893167
 C     -6.063717   -1.172594    1.368528
 C     -6.966318   -0.105190   -1.043440
 H     -4.926555   -0.266823   -1.699227
 C     -7.402471   -0.853115    1.216800
 H     -5.702670   -1.589930    2.303632
 C     -7.849197   -0.321668    0.014305
 H     -7.328186    0.308976   -1.979621
 H     -8.098563   -1.018387    2.033679
 H     -8.900894   -0.071587   -0.104849
 C     -1.944872    1.616852    1.832987
 C     -1.497092    1.143406    0.705478
 H     -1.276507    1.722474    2.681868
 H     -2.979077    1.940623    1.924458
 C     -1.029304    0.626909   -0.404465
 H     -0.615245    1.285310   -1.157039
 Cl    -0.804417   -2.420161    0.916835
 Cl    -1.482953   -1.944097   -2.518865
 O      0.727188   -1.247229   -1.172795
 O      1.400444    1.039223    1.996430
 C      2.417617   -0.545086    0.190808
 C      2.023526    0.813165   -0.153282
 C      1.195785    2.873277    0.637935
 C      2.099601   -2.850635   -0.239516
 C      3.107017   -3.184275    0.601836
 C      3.491994   -0.835245    1.062899
 C      3.818545   -2.180341    1.303481
 C      2.126510    1.321110   -1.470986
 C      1.740461    2.647427   -1.705885
 C      1.287239    3.409338   -0.604629
 N      1.741019   -1.523286   -0.376677
 N      1.544620    1.534552    0.867714
 C      0.733064    3.608320    1.786061
 C      1.400272   -3.815557   -1.045962
 N      0.351960    4.189199    2.703518
 N      0.884745   -4.614194   -1.693981
 H      1.000620    4.446652   -0.734482
 H      3.371154   -4.228744    0.708433
 C      4.868398   -2.491273    2.195161
 H      5.114658   -3.531234    2.377359
 C      4.236682    0.187856    1.687976
 H      3.999277    1.219644    1.489202
 C      2.604554    0.542954   -2.544378
 C      1.823526    3.184605   -3.012884
 C      2.276643    2.413579   -4.040742
 H      2.341762    2.819831   -5.045940
 C      2.672337    1.076212   -3.797157
 H      3.036563    0.467277   -4.620647
 C      5.559829   -1.487829    2.808223
 H      6.368364   -1.725379    3.494979
 C      5.243770   -0.132414    2.546047
 H      5.813519    0.654915    3.031767
 H      2.903263   -0.478205   -2.378793
 H      1.523321    4.213968   -3.176528
