59

 Si    -1.256328   -0.901967   -1.368955
 O     -2.816444   -0.388657   -0.568313
 C     -3.924889   -0.132275   -1.033686
 C     -5.054374    0.269008   -0.226064
 H     -4.076337   -0.205369   -2.115399
 C     -4.919364    0.356403    1.161092
 C     -6.268696    0.577421   -0.839872
 C     -5.991313    0.751171    1.929628
 H     -3.965752    0.112740    1.609652
 C     -7.345075    0.975588   -0.066031
 H     -6.363721    0.503791   -1.919008
 C     -7.203264    1.061088    1.312562
 H     -5.895695    0.821408    3.008566
 H     -8.294432    1.217083   -0.534341
 H     -8.049734    1.372536    1.920446
 C     -0.022854   -2.402452    2.184320
 C     -0.621316   -2.370792    1.022974
 H     -0.540953   -2.078093    3.082330
 H      0.983199   -2.791647    2.290113
 C     -1.193511   -2.337561   -0.148844
 H     -1.729274   -3.242489   -0.429518
 Cl    -1.298439    0.869868   -2.532654
 Cl    -2.118496   -2.032475   -2.883064
 O     -0.509859    0.050529    0.023534
 O      0.435749   -1.083480   -1.915300
 C      1.562124    0.754743   -0.463674
 C      1.952472   -0.646275   -0.312294
 C      1.643402   -2.855812   -1.074760
 C     -0.179363    2.308589   -0.129128
 C      0.641679    3.345498   -0.429756
 C      2.454438    1.784845   -0.838106
 C      1.978554    3.106673   -0.828067
 C      2.913253   -1.068596    0.632710
 C      3.240069   -2.434207    0.677417
 C      2.591957   -3.314350   -0.217938
 N      0.301706    1.021062   -0.198540
 N      1.330932   -1.516508   -1.081349
 C      0.959168   -3.705346   -2.009862
 C     -1.545946    2.446637    0.295383
 N      0.456222   -4.433183   -2.744568
 N     -2.631863    2.551961    0.656125
 H      2.829660   -4.370761   -0.226998
 H      0.251960    4.353983   -0.369321
 C      2.846001    4.157811   -1.208694
 H      2.475355    5.176728   -1.191516
 C      3.780299    1.518866   -1.248713
 H      4.137738    0.500072   -1.278943
 C      3.514192   -0.175207    1.550518
 C      4.189753   -2.891492    1.622259
 C      4.764807   -2.013868    2.490715
 H      5.490604   -2.364489    3.219946
 C      4.416433   -0.639089    2.457493
 H      4.873806    0.046145    3.166389
 C      4.122992    3.883029   -1.597065
 H      4.787745    4.689517   -1.895356
 C      4.593029    2.545757   -1.622151
 H      5.610128    2.341648   -1.946471
 H      3.245678    0.870110    1.535708
 H      4.442189   -3.945867    1.644439
