77

 Si     0.526692    0.868266   -0.932792
 O      2.142618    0.672069   -0.861107
 C      3.387451    1.153062   -0.550376
 C      3.722393    0.863980    0.888654
 H      4.094120    0.606962   -1.183532
 C      2.716228    0.651794    1.811961
 C      5.046621    0.791870    1.302613
 C      3.016994    0.353605    3.131009
 H      1.693472    0.708780    1.492451
 C      5.356527    0.498392    2.620872
 H      5.844351    0.959036    0.587315
 C      4.340311    0.274011    3.540217
 H      2.213773    0.186558    3.842610
 H      6.396285    0.443138    2.931251
 H      4.581002    0.042582    4.573933
 C      3.540664    2.629164   -0.856064
 C      3.267136    2.932375   -2.269634
 H      4.567137    2.936584   -0.626221
 H      2.867070    3.211904   -0.230737
 C      3.051877    3.174914   -3.425658
 H      2.863990    3.404843   -4.446565
 Cl     0.404207    0.622008   -2.936629
 Cl     0.378725    2.635784    0.015201
 O      0.384364   -0.478479    0.116745
 O     -1.259138    0.728816   -1.030683
 C     -1.544831   -1.604385   -0.165045
 C     -2.133188   -0.514437    0.608019
 C     -2.669284    1.788295    0.481441
 C      0.481568   -2.422252   -1.092292
 C     -0.192442   -3.449020   -1.675305
 C     -2.288697   -2.642562   -0.746734
 C     -1.591617   -3.577660   -1.534111
 C     -2.815266   -0.676263    1.818392
 C     -3.432336    0.463684    2.363485
 C     -3.373054    1.673097    1.646489
 C     -3.698018   -2.743981   -0.607065
 C     -2.316267   -4.626801   -2.156775
 C     -2.879066   -1.919012    2.504591
 C     -4.126055    0.344096    3.598391
 H     -3.910878    2.538586    2.006663
 C     -2.634696    2.998155   -0.344327
 N     -0.249016   -1.512766   -0.380196
 N     -2.004056    0.675247    0.043336
 C      1.930540   -2.220873   -1.109630
 H      0.368415   -4.178247   -2.244328
 C     -3.664569   -4.712084   -2.002742
 C     -4.366817   -3.753543   -1.219840
 H     -4.229672   -2.010323   -0.019699
 H     -1.776341   -5.350513   -2.756887
 H     -4.217644   -5.514874   -2.483799
 H     -5.445840   -3.832754   -1.118834
 C      2.603547   -2.032416   -2.304059
 C      2.619884   -2.261535    0.091147
 C      4.673584   -1.951848   -1.097862
 C      3.993761   -2.139644    0.096598
 C      3.978798   -1.889351   -2.296148
 H      2.055545   -1.988825   -3.236327
 H      4.510670   -1.740663   -3.230940
 H      5.755717   -1.856370   -1.094783
 H      4.536441   -2.191991    1.033215
 H      2.085168   -2.406950    1.018113
 C     -2.728109    2.904171   -1.724901
 C     -2.538649    4.245046    0.263151
 C     -2.604504    5.295330   -1.892207
 C     -2.519530    5.391499   -0.508895
 C     -2.712444    4.051207   -2.497198
 H     -2.804188    1.938717   -2.198119
 H     -2.785508    3.971625   -3.577565
 H     -2.589233    6.195565   -2.500462
 H     -2.436123    6.362866   -0.030811
 H     -2.455444    4.319297    1.339904
 C     -3.541566   -2.001919    3.685183
 C     -4.177374   -0.852698    4.239005
 H     -4.606299    1.222018    4.015654
 H     -2.386936   -2.785143    2.085366
 H     -3.588247   -2.947027    4.219509
 H     -4.704704   -0.941792    5.185401
