77

 Si    -0.327377    1.481437   -0.283632
 O     -1.564475    0.582778    0.236953
 C     -2.539154    0.773345    1.201557
 C     -3.867904    0.833170    0.509481
 H     -2.363283    1.731876    1.696585
 C     -3.922969    1.522343   -0.693536
 C     -5.026873    0.270700    1.019396
 C     -5.113278    1.642997   -1.385452
 H     -3.025271    1.974781   -1.083312
 C     -6.226057    0.391798    0.331547
 H     -5.010470   -0.261044    1.961874
 C     -6.272275    1.074280   -0.873468
 H     -5.137790    2.188109   -2.324182
 H     -7.128501   -0.050684    0.743967
 H     -7.211084    1.168312   -1.411775
 C     -2.385062   -0.314044    2.235430
 C     -1.009743   -0.340567    2.754429
 H     -3.069621   -0.149000    3.074534
 H     -2.617878   -1.283499    1.802919
 C      0.114237   -0.340592    3.174435
 H      1.098861   -0.341309    3.570286
 Cl    -0.147534    2.318783   -2.114929
 Cl    -0.731173    3.210216    0.729781
 O      1.090982    1.236869    0.627446
 O      0.155249   -0.011348   -1.123132
 C      2.422881   -0.378015   -0.222498
 C      1.374603   -1.299967    0.206403
 C     -0.850722   -1.934307   -0.304378
 C      3.058064    1.906256   -0.353483
 C      4.180020    1.558587   -1.039605
 C      3.561784   -0.786395   -0.933545
 C      4.455483    0.213045   -1.360445
 C      1.549004   -2.354545    1.104428
 C      0.457939   -3.223191    1.281879
 C     -0.708922   -3.009703    0.529587
 C      3.807861   -2.144795   -1.268032
 C      5.608310   -0.163673   -2.097857
 C      2.747921   -2.551599    1.841784
 C      0.583690   -4.302710    2.199220
 H     -1.522650   -3.716293    0.599167
 C     -2.035888   -1.681958   -1.124083
 N      2.198089    0.901926    0.001251
 N      0.210863   -1.083754   -0.382964
 C      2.703997    3.264922    0.066407
 H      4.870535    2.339496   -1.328237
 C      5.831115   -1.470713   -2.397447
 C      4.913619   -2.476178   -1.981126
 H      3.107007   -2.905358   -0.958860
 H      6.299158    0.608083   -2.417963
 H      6.713123   -1.756583   -2.965035
 H      5.102585   -3.513791   -2.242620
 C      2.553531    4.269786   -0.876777
 C      2.543531    3.535591    1.416997
 C      2.070408    5.824545    0.884950
 C      2.231515    4.817483    1.827131
 C      2.229377    5.550760   -0.466112
 H      2.668220    4.047245   -1.930367
 H      2.101634    6.337437   -1.203353
 H      1.821935    6.831975    1.206985
 H      2.111828    5.032291    2.884288
 H      2.659469    2.745137    2.144418
 C     -1.931503   -1.077036   -2.367187
 C     -3.281915   -2.103464   -0.674844
 C     -4.300347   -1.292336   -2.684912
 C     -4.408047   -1.914060   -1.450531
 C     -3.058781   -0.876536   -3.140500
 H     -0.971927   -0.767504   -2.739809
 H     -2.961964   -0.401977   -4.112214
 H     -5.184283   -1.141008   -3.297089
 H     -5.372945   -2.251757   -1.088616
 H     -3.381881   -2.585282    0.286531
 C      2.834339   -3.582007    2.718574
 C      1.735422   -4.473163    2.897599
 H     -0.255065   -4.976610    2.331956
 H      3.574958   -1.869038    1.705930
 H      3.743393   -3.734321    3.294325
 H      1.828072   -5.294644    3.603480
