77

 Si     0.462813    1.070536   -0.915161
 O      2.271048    0.903261   -0.574474
 C      3.068993    1.166314    0.305775
 C      4.505657    1.048619    0.121393
 H      2.717581    1.509161    1.284836
 C      4.997675    0.715806   -1.140232
 C      5.376367    1.259596    1.188212
 C      6.355913    0.584246   -1.332699
 H      4.295009    0.567804   -1.950553
 C      6.740081    1.120980    0.995450
 H      4.984152    1.526386    2.164580
 C      7.224980    0.784031   -0.261707
 H      6.747108    0.329253   -2.312800
 H      7.426988    1.279495    1.821425
 H      8.296907    0.679906   -0.413344
 C     -0.576349    1.254678    2.994738
 C     -0.169491    1.681090    1.827490
 H      0.132879    0.881346    3.728340
 H     -1.621823    1.294429    3.276152
 C      0.230115    2.097867    0.658596
 H      0.474605    3.155163    0.599010
 Cl     0.837597   -0.225824   -2.544498
 Cl     0.795169    2.772265   -2.075651
 O      0.273185   -0.335144    0.194454
 O     -1.236984    0.872854   -1.296977
 C     -1.577341   -1.482595   -0.330544
 C     -2.303754   -0.350805    0.243620
 C     -2.757595    1.966528    0.046199
 C      0.556733   -2.475921   -0.566945
 C     -0.007471   -3.576831   -1.128508
 C     -2.209955   -2.582082   -0.935450
 C     -1.398062   -3.645443   -1.362573
 C     -3.169783   -0.479332    1.341369
 C     -3.843783    0.674614    1.775474
 C     -3.631248    1.886475    1.086741
 C     -3.611203   -2.629246   -1.149929
 C     -2.004591   -4.764310   -1.989625
 C     -3.348870   -1.706351    2.032297
 C     -4.716409    0.582781    2.891772
 H     -4.169162    2.778395    1.377440
 C     -2.488066    3.173308   -0.738739
 N     -0.264435   -1.431976   -0.237090
 N     -2.093481    0.824751   -0.315199
 C      1.976011   -2.327988   -0.228662
 H      0.628840   -4.412054   -1.386366
 C     -3.350215   -4.792974   -2.184839
 C     -4.165440   -3.707192   -1.762269
 H     -4.227104   -1.799681   -0.834935
 H     -1.376858   -5.587712   -2.310922
 H     -3.812215   -5.649194   -2.669451
 H     -5.237496   -3.743983   -1.935395
 C      2.956016   -2.588131   -1.172876
 C      2.329661   -1.972306    1.064270
 C      4.646887   -2.171261    0.477717
 C      3.663879   -1.896041    1.418272
 C      4.292641   -2.508187   -0.819680
 H      2.673462   -2.839108   -2.187316
 H      5.058072   -2.714348   -1.561138
 H      5.694206   -2.115780    0.756568
 H      3.937759   -1.631978    2.435000
 H      1.560709   -1.763327    1.792989
 C     -2.593526    3.131204   -2.120477
 C     -2.149537    4.356033   -0.096730
 C     -2.011699    5.455176   -2.224231
 C     -1.905953    5.496731   -0.840493
 C     -2.359589    4.273312   -2.862848
 H     -2.852744    2.207350   -2.615036
 H     -2.447563    4.240061   -3.944087
 H     -1.826082    6.352120   -2.808499
 H     -1.636760    6.421572   -0.339236
 H     -2.062152    4.381053    0.982274
 C     -4.180926   -1.764502    3.102916
 C     -4.879497   -0.602808    3.536298
 H     -5.241443    1.473028    3.219238
 H     -2.812204   -2.584747    1.705821
 H     -4.316286   -2.700439    3.637990
 H     -5.544555   -0.669975    4.393471
