77

 Si     0.353177   -1.721563    0.798009
 O     -1.246024   -1.523731    0.658288
 C     -2.178502   -2.135857   -0.171013
 C     -2.468861   -1.152176   -1.268361
 H     -1.720949   -3.019890   -0.617288
 C     -1.415132   -0.835387   -2.116046
 C     -3.688862   -0.525592   -1.450360
 C     -1.573594    0.089735   -3.129477
 H     -0.466786   -1.328818   -1.977722
 C     -3.857495    0.402506   -2.469963
 H     -4.527706   -0.768029   -0.812199
 C     -2.801844    0.712061   -3.311611
 H     -0.741702    0.316960   -3.788052
 H     -4.823972    0.879235   -2.607254
 H     -2.936743    1.431818   -4.112697
 C     -3.350350   -2.593858    0.654420
 C     -2.890983   -3.388421    1.800799
 H     -4.031603   -3.196447    0.041436
 H     -3.906906   -1.745427    1.037947
 C     -2.494036   -4.012848    2.745419
 H     -2.157903   -4.582303    3.578666
 Cl     1.406350   -2.126297    2.473626
 Cl     0.534267   -3.571873   -0.055668
 O      1.189505   -1.016226   -0.513149
 O      0.317110   -0.062826    1.442805
 C      1.805211    1.120797   -0.131297
 C      0.377778    1.419999   -0.203598
 C     -1.635721    1.112498    1.006964
 C      3.430051   -0.609517   -0.209605
 C      4.407621    0.289150    0.084400
 C      2.776284    2.084709    0.182645
 C      4.109413    1.650631    0.302337
 C     -0.207883    2.316544   -1.097759
 C     -1.562051    2.628215   -0.887205
 C     -2.233082    2.037432    0.193054
 C      2.452079    3.446185    0.424809
 C      5.113996    2.595913    0.636406
 C      0.498931    2.897860   -2.185404
 C     -2.196608    3.553526   -1.760913
 H     -3.252405    2.322599    0.402292
 C     -2.301353    0.480537    2.146476
 N      2.143828   -0.145353   -0.271717
 N     -0.336537    0.812347    0.730497
 C      3.637885   -2.031112   -0.499288
 H      5.429997   -0.059930    0.137961
 C      4.783937    3.896870    0.851967
 C      3.431161    4.327398    0.750370
 H      1.424770    3.769833    0.355813
 H      6.141232    2.259414    0.719357
 H      5.554640    4.618624    1.110552
 H      3.185911    5.368818    0.940063
 C      4.220269   -2.859208    0.447467
 C      3.262392   -2.530043   -1.737539
 C      4.044914   -4.698922   -1.082078
 C      3.470670   -3.863877   -2.031290
 C      4.417957   -4.197628    0.156776
 H      4.499123   -2.464288    1.416462
 H      4.865491   -4.850474    0.899860
 H      4.206026   -5.748532   -1.311598
 H      3.184008   -4.254612   -3.002512
 H      2.808430   -1.876536   -2.468718
 C     -1.594529    0.064605    3.264291
 C     -3.683348    0.325922    2.121363
 C     -3.627436   -0.702750    4.285390
 C     -4.344712   -0.262856    3.181888
 C     -2.252402   -0.530284    4.324278
 H     -0.530917    0.205260    3.316714
 H     -1.683334   -0.854289    5.190264
 H     -4.143210   -1.170781    5.119194
 H     -5.423441   -0.382628    3.144830
 H     -4.250993    0.650816    1.261394
 C     -0.137129    3.763060   -3.011994
 C     -1.504847    4.102146   -2.790994
 H     -3.237744    3.801778   -1.591478
 H      1.534412    2.634148   -2.348853
 H      0.392703    4.205800   -3.851243
 H     -1.991898    4.805438   -3.461601
