77

 Si     1.002432    0.039591   -1.108182
 O      1.444331    0.750904    0.279484
 C      2.652790    1.227284    0.765087
 C      3.749637    0.255639    0.443455
 H      2.877230    2.192467    0.304242
 C      3.511582   -1.097905    0.616573
 C      4.978757    0.679082   -0.034528
 C      4.485606   -2.028309    0.305835
 H      2.551164   -1.419930    0.984002
 C      5.963111   -0.248904   -0.341518
 H      5.168632    1.736820   -0.178310
 C      5.717750   -1.603693   -0.174472
 H      4.282468   -3.085270    0.436675
 H      6.923826    0.089441   -0.719078
 H      6.486929   -2.330421   -0.419812
 C      2.497447    1.391934    2.259466
 C      1.483245    2.391046    2.639005
 H      3.451257    1.693007    2.710387
 H      2.211848    0.429589    2.686320
 C      0.679173    3.215191    2.982385
 H     -0.003977    3.955448    3.319307
 Cl     1.411512   -1.713168   -2.023237
 Cl     2.167414    1.157053   -2.367174
 O     -0.022164   -0.881211    0.078695
 O     -0.457911    0.758867   -1.612030
 C     -2.165972   -0.804089   -0.508343
 C     -2.043830    0.567737   -0.024615
 C     -0.899806    2.623131   -0.312058
 C     -1.054758   -2.889861   -0.467743
 C     -2.166127   -3.479917   -0.997111
 C     -3.323627   -1.354414   -1.070417
 C     -3.305902   -2.731996   -1.351795
 C     -2.770695    1.060726    1.065067
 C     -2.527943    2.389218    1.457922
 C     -1.598279    3.153812    0.729008
 C     -4.471095   -0.576758   -1.378557
 C     -4.455030   -3.326258   -1.939400
 C     -3.699275    0.264407    1.789341
 C     -3.239450    2.918971    2.567067
 H     -1.434374    4.192517    0.977171
 C      0.039466    3.371879   -1.146480
 N     -1.077865   -1.529921   -0.320616
 N     -1.136013    1.314460   -0.622187
 C      0.114185   -3.620565    0.030408
 H     -2.166149   -4.553951   -1.120393
 C     -5.543514   -2.566046   -2.229231
 C     -5.551430   -1.169646   -1.946479
 H     -4.467309    0.483942   -1.170537
 H     -4.443603   -4.389125   -2.153181
 H     -6.419980   -3.021218   -2.683377
 H     -6.430045   -0.579946   -2.193859
 C      0.644945   -4.676955   -0.698894
 C      0.652888   -3.287095    1.263989
 C      2.259501   -5.054845    1.035451
 C      1.721807   -4.005847    1.767809
 C      1.720324   -5.389441   -0.200002
 H      0.228536   -4.931816   -1.665346
 H      2.137085   -6.210618   -0.775669
 H      3.100312   -5.618285    1.430809
 H      2.136591   -3.746426    2.737118
 H      0.236494   -2.468176    1.829472
 C     -0.161182    3.432289   -2.517250
 C      1.087874    4.059758   -0.556180
 C      1.758096    4.855362   -2.716931
 C      1.954378    4.795636   -1.344142
 C      0.696986    4.178441   -3.302230
 H     -0.984406    2.897589   -2.968134
 H      0.538008    4.232118   -4.374665
 H      2.433278    5.440580   -3.335144
 H      2.780230    5.330715   -0.885184
 H      1.230024    4.004123    0.514254
 C     -4.357466    0.793120    2.850399
 C     -4.127078    2.143356    3.242374
 H     -3.059450    3.946579    2.861131
 H     -3.869148   -0.759623    1.492057
 H     -5.065452    0.187810    3.410015
 H     -4.668844    2.550009    4.092713
