77

 Si     0.361892    1.455979    0.362436
 O      1.541881    0.600178   -0.333278
 C      2.425638    0.862468   -1.366153
 C      3.812396    0.869617   -0.796314
 H      2.211924    1.855347   -1.770376
 C      3.981916    1.465795    0.445091
 C      4.916013    0.347222   -1.451111
 C      5.231342    1.534247    1.031957
 H      3.126759    1.887520    0.948426
 C      6.173849    0.416149   -0.868952
 H      4.809754   -0.112342   -2.425170
 C      6.334778    1.005968    0.374517
 H      5.345320    2.007156    2.002694
 H      7.031727    0.005972   -1.394393
 H      7.319579    1.059523    0.829794
 C      2.169827   -0.143864   -2.460434
 C      0.752852   -0.130532   -2.851990
 H      2.776154    0.084310   -3.343774
 H      2.434624   -1.143143   -2.125268
 C     -0.404805   -0.098027   -3.165873
 H     -1.421451   -0.067974   -3.468694
 Cl     0.353771    2.153824    2.259870
 Cl     0.683254    3.256052   -0.551623
 O     -1.135411    1.280375   -0.430639
 O     -0.052208   -0.095754    1.128180
 C     -2.394810   -0.394122    0.414561
 C     -1.396460   -1.281134   -0.176581
 C      0.862114   -1.951385    0.078828
 C     -3.000491    1.873718    0.772983
 C     -4.057785    1.475305    1.530549
 C     -3.467529   -0.854934    1.193273
 C     -4.312118    0.109446    1.773331
 C     -1.659131   -2.264864   -1.131778
 C     -0.594511   -3.117226   -1.473312
 C      0.637718   -2.960596   -0.817329
 C     -3.691647   -2.234734    1.445778
 C     -5.396179   -0.321821    2.581797
 C     -2.921879   -2.406661   -1.768361
 C     -0.810564   -4.124449   -2.453829
 H      1.437126   -3.659401   -1.014595
 C      2.118565   -1.761524    0.803853
 N     -2.183115    0.899095    0.267022
 N     -0.182057   -1.109120    0.317441
 C     -2.677189    3.260251    0.425647
 H     -4.713703    2.232302    1.938767
 C     -5.599907   -1.647701    2.801355
 C     -4.730588   -2.618921    2.229321
 H     -3.026737   -2.969795    1.018228
 H     -6.049931    0.423657    3.020221
 H     -6.428914   -1.975689    3.423431
 H     -4.902148   -3.673251    2.428517
 C     -2.436503    4.191583    1.424013
 C     -2.636909    3.631683   -0.909833
 C     -2.103796    5.874509   -0.252718
 C     -2.355006    4.940932   -1.249278
 C     -2.142536    5.499942    1.082885
 H     -2.457367    3.890486    2.464027
 H     -1.944348    6.229134    1.862436
 H     -1.879289    6.903479   -0.519499
 H     -2.329579    5.234622   -2.293857
 H     -2.822397    2.897998   -1.680983
 C      2.131188   -1.253614    2.093821
 C      3.315881   -2.147014    0.212412
 C      4.517602   -1.492085    2.177755
 C      4.508916   -2.017120    0.894788
 C      3.325175   -1.112857    2.774694
 H      1.211413   -0.973778    2.574629
 H      3.319936   -0.714366    3.784635
 H      5.454334   -1.387867    2.716910
 H      5.434755   -2.325736    0.421899
 H      3.325252   -2.553800   -0.787982
 C     -3.094798   -3.368104   -2.708429
 C     -2.022583   -4.242476   -3.054169
 H      0.008216   -4.785853   -2.713435
 H     -3.728676   -1.736918   -1.506016
 H     -4.053646   -3.477088   -3.208222
 H     -2.184741   -5.008211   -3.808520
