11
opt_min/./Product_3397_0_opt.xyz
  N -1.55367854  1.00579846 -1.02079433
  C -161.03809574  26.04565123  5.92951787
  O  113.28630019 -37.87387607  43.79861618
  C -28.92154512  79.61947471 -79.96029593
  C -1.79478563 -35.66040739  40.46784140
  C  24.23870370  44.66025742  20.69242112
  H -11.81137580 -13.46081145 -16.99990629
  H -0.89840261 -17.17938735 -12.83949029
  H  3.66091748 -21.07029349  10.33067425
  H  98.07325455 -14.04572321 -7.22162535
  H -0.04214664  90.71571544  33.52850585
