17
opt_min/./Product_10925_0_opt.xyz
  O  0.76328600  2.35849700 -0.43795800
  C  1.30803122  1.14402295  0.00379275
  C  0.29574193  0.04645187  0.22710029
  C -1.16860494  0.27511279 -0.04092139
  C -2.01112860 -0.97549990  0.18379187
  H -3.02178464 -0.80953772 -0.17956847
  H -1.58700825 -1.82440165 -0.34626714
  H -2.05977746 -1.22339183  1.24110648
  H -1.29491838  0.63011338 -1.06881398
  H -1.53694006  1.07538284  0.61442360
  O  0.66599469 -1.12760638  0.60441041
  C  1.85678248 -1.57228241  0.88361338
  H  2.74814687 -0.97659841  0.79970542
  H  1.90119588 -2.61509285  1.13457232
  H  2.02699780  0.84765094 -0.77512499
  H  1.88602001  1.29368032  0.93779968
  H  0.07092725  2.63027617  0.17442174
