9
opt_min/./Product_860_0_opt.xyz
  C  0.41947100  0.50435000  0.39382900
  C -0.95581240  0.36774732 -0.12935379
  N -1.50599378 -0.75174699 -0.31126624
  N -1.99028191 -1.76632701 -0.44150706
  H -1.51925119  1.24021688 -0.39743063
  H  0.65812839  1.51684062  0.69770702
  C  1.48784558 -0.42364854  0.04877396
  H  2.17474336 -0.80402633 -0.67182947
  N  1.03035678 -0.60797008  1.20189208
