13
opt_min/./Product_9838_0_opt.xyz
  C  1.15039800 -0.54391200 -0.35970300
  H  1.23768500 -0.40135594 -1.44557098
  H  1.92141918 -1.22163751 -0.00500921
  O  1.30764269  0.69109628  0.31145734
  C  0.05071841  1.34591877  0.28409638
  H -0.11193627  1.80211026 -0.70377835
  H  0.04774759  2.11723762  1.04859924
  C -0.98991130  0.24395941  0.52893110
  H -1.39234194  0.22572006  1.53435717
  C -1.94340018 -0.03668544 -0.65624996
  O -1.21571812 -1.04218208 -1.07718441
  C -0.26657911 -1.00672406 -0.00721241
  H -0.30128038 -1.90764676  0.60256973
