14
opt_min/./Product_9161_0_opt.xyz
  C  2.43181694  0.34653110  0.68658715
  N  1.17389679 -0.31312343  0.92676793
  C  0.22623452 -0.26222323  0.10326943
  C -1.04412232 -0.95203019  0.41777497
  C -2.18778406 -0.33625316  0.39174077
  C -3.30533138  0.31322314  0.37377333
  H -3.91982058  0.34974438 -0.51078387
  H -3.67253697  0.82169598  1.25011370
  H -0.96888302 -1.98668684  0.71664902
  O  0.19985767  0.37511829 -1.09517415
  H  1.03645357  0.83589537 -1.24910257
  H  3.00339032 -0.15894703 -0.09978109
  H  2.31877581  1.40294631  0.41063285
  H  3.00387141  0.29051192  1.61214509
