11
opt_min/./Product_4004_0_opt.xyz
  N -1.81514000 -0.47485300  0.13981800
  C -0.49276711 -0.31068358  0.05687231
  N  0.37895970 -1.27099856 -0.00640028
  C  1.59596891 -0.61917243 -0.08903593
  H  2.50519467 -1.18525314 -0.15508758
  N  1.58773587  0.65959577 -0.08743423
  C  0.20381654  1.04132004  0.00406486
  H  0.02243659  1.64968605  0.89004859
  H -0.09026418  1.59911507 -0.88739155
  H -2.20362403 -1.39922901  0.19669647
  H -2.43489586  0.30930902  0.22460186
