15
opt_min/./Product_7519_0_opt.xyz
  C  2.24196900 -0.21761300  0.14206600
  C  0.97101955 -0.37366320  0.45077906
  C -0.18445588  0.25407953 -0.27601151
  C -0.99447244  1.10249292  0.71305361
  H -0.33409445  1.81907806  1.19871643
  H -1.42280784  0.46411470  1.48135154
  H -1.78246398  1.63712675  0.19260288
  C -1.06409775 -0.83431571 -0.88852904
  H -1.92679975 -0.39164029 -1.38208955
  H -1.43289701 -1.50493470 -0.11301593
  H -0.50123252 -1.42376238 -1.60727775
  H  0.20467638  0.89481632 -1.07184380
  H  0.68123850 -0.99537826  1.28959644
  H  2.56280021  0.39334497 -0.68715021
  H  3.03426680 -0.69003134  0.69931141
