16
opt_min/./Reactant_3560_0_opt.xyz
  C  2.15419900  0.48532000 -0.64492200
  C  0.70661295  0.04277476 -0.83099616
  C  0.00776843 -0.16831893  0.51273834
  C -1.41984532 -0.66311522  0.37340143
  H -1.78359945 -1.26382475  1.20369128
  C -2.43043692  0.07477173 -0.38631373
  H -2.14596259  0.98541503 -0.89706655
  H -3.47369153  0.00471445 -0.10515421
  O -1.86311966 -1.10444585 -0.87783046
  H  0.57474031 -0.89581895  1.09773645
  H  0.00539996  0.76792418  1.07491341
  H  0.68180688 -0.89047445 -1.39128356
  H  0.17347684  0.79564570 -1.41077145
  H  2.60312869  0.71588553 -1.60516005
  H  2.20779862  1.37577702 -0.02361275
  H  2.73289142 -0.29879920 -0.16755262
