15
opt_min/./Product_9113_0_opt.xyz
  C  0.03556500 -0.08378300  0.77729200
  C  0.89851227 -0.97270750 -0.05888276
  O  2.01736667 -0.61431227 -0.58871860
  C  2.63502313  0.51613554 -0.52674157
  H  3.59640829  0.54386172 -1.00194688
  H  2.26449183  1.37053125  0.01140121
  H  0.57567586 -1.96459234 -0.32296210
  C -0.85698006  0.80647682 -0.07519563
  H -0.33708475  1.51927092 -0.71140331
  C -2.17579769  0.34460658 -0.50945713
  H -2.59399050  0.70082719 -1.44498154
  H -2.53008543 -0.62977939 -0.19072580
  O -2.03416525  1.29989421  0.49997795
  H -0.59819646 -0.68663443  1.42888961
  H  0.65712138  0.55476472  1.41453332
