12
opt_min/./Product_7079_0_opt.xyz
  O -1.43409100  1.31541600 -0.81879400
  C -0.64364769  0.75101257 -0.10075974
  N  0.29096979  1.36930553  0.65477281
  H  0.82067273  0.83063665  1.32047090
  H  0.26377946  2.36990620  0.75417037
  C  1.91059291 -1.64730367 -0.56486839
  H  2.69173409 -2.12252154 -0.00050314
  H  2.07547267 -1.47747989 -1.61406286
  C  0.73519982 -1.39640416 -0.05586777
  O  0.07650382 -1.33749162  1.11965222
  C -0.55878867 -0.75310203 -0.03461081
  H -1.43550805 -1.28261571 -0.39208093
