14
opt_min/./Product_7024_0_opt.xyz
  C -1.83584800  0.79882900  0.33455300
  C -0.73630311 -0.17340424 -0.02045326
  H -0.70712682 -0.45856144 -1.06916551
  C  0.65075842 -0.02645209  0.66221848
  C  1.86921888 -0.18748727 -0.12989884
  N  2.91990319  0.41859462  0.20119463
  H  3.73424163  0.26077605 -0.38660551
  H  1.77349774 -0.85947275 -0.99204794
  H  0.75159896  0.71600713  1.44850414
  C -0.25895163 -1.16816537  0.92254312
  O -0.41660499 -2.17711507  1.52860975
  H -2.80833797  0.38312216  0.07180325
  H -1.69828932  1.73369568 -0.20740007
  H -1.82664782  1.00965879  1.40265347
