19
opt_min/./Product_9707_0_opt.xyz
  C -0.87629000  1.93454200  0.25718200
  C -0.34928991  0.49841533  0.30203953
  C -1.43638807 -0.45978212 -0.07895971
  C -1.90663253 -1.41564515  0.70225363
  H -2.69318372 -2.07539356  0.37888391
  H -1.51946420 -1.57241491  1.69393635
  H -1.83755675 -0.31859815 -1.07419952
  C  0.85621688  0.34220134 -0.64671548
  C  1.44610214 -1.02749705 -0.57181308
  C  2.68972449 -1.28248339 -0.20980927
  H  3.38132209 -0.49843765  0.05015396
  H  3.07761987 -2.28562032 -0.16123299
  H  0.78451302 -1.84673999 -0.81869595
  H  0.51801026  0.54301367 -1.66668044
  H  1.61776301  1.08015051 -0.39070268
  H -0.02079732  0.27260890  1.32113012
  H -1.23941779  2.17987968 -0.73666048
  H -0.09037183  2.63641328  0.51792008
  H -1.69457713  2.05583955  0.95978062
