8
opt_min/./Product_151_0_opt.xyz
  C  2.19958477  0.04601477  0.14954831
  N  20.86279818 -5.97505731 -25.34499906
  N -23.23231001  3.17913881  28.81904604
  C -15.73040784  13.50302046 -7.65840917
  N -0.31880072  5.80001441 -38.58460278
  N  16.41657425  8.44939518 -8.08366004
  H  17.36527842  5.61753396 -10.31394563
  H  6.44490279  12.30963322  25.01216907
