15
opt_min/./Product_7054_0_opt.xyz
  C  2.10685300  0.45961500 -0.12926300
  C  0.99293520 -0.45738018 -0.58511904
  O  0.97693791 -0.98630267 -1.66183027
  C -0.14923792 -0.58312616  0.41200511
  H  0.23297041 -0.86185963  1.40021059
  C -1.10784428  0.63091121  0.40804108
  H -1.29281455  1.07282919  1.37938093
  H -0.86196772  1.39844623 -0.31561374
  C -2.15157041 -0.38857427 -0.06483158
  H -2.99559571 -0.55108140  0.61027051
  H -2.52893307 -0.23929142 -1.07756693
  O -1.20377235 -1.45376634 -0.00013301
  H  1.82953098  1.48619704 -0.34649681
  H  3.01197372  0.21775785 -0.67440805
  H  2.28018694  0.36888588  0.93684093
