12
opt_min/./Reactant_2517_0_opt.xyz
  C -1.67347400 -0.35334900  0.06522700
  C -0.34857659  0.39023001  0.07406551
  N -0.19238547  1.63114435  0.19408517
  H -1.04452663  2.16473179  0.30783955
  N  0.75110120 -0.44345894 -0.09085953
  C  2.06667884 -0.07097436 -0.13655685
  O  2.51514766  1.03104850 -0.03282635
  H  2.71526811 -0.95964090 -0.27960247
  H  0.53479635 -1.42355596 -0.19408595
  H -2.35100124  0.10434003  0.77681090
  H -2.11731313 -0.28055978 -0.92606575
  H -1.55750577 -1.40643826  0.31137965
