12
opt_min/./Product_1068_0_opt.xyz
  N  1.61408900 -0.08736000  0.66485500
  N  0.57529779 -0.22367864 -0.31641055
  H  1.05229722 -0.41163364 -1.20571537
  C -0.33999561 -1.42683820 -0.03180219
  C -1.57090025 -0.85396584 -0.04988607
  H -2.48996130 -1.38946311  0.11632444
  C -1.53437609  0.56713633 -0.28862967
  H -2.39780308  1.20979640 -0.32567637
  C -0.26205495  0.95859841 -0.43726241
  H  0.19071454  1.90842960 -0.63556874
  H  1.16756680  0.22742577  1.52857875
  H  1.96050089 -1.03199629  0.85125073
