12
opt_min/./Product_7010_1_opt.xyz
  C -2.03246500 -0.01979000 -0.04537200
  C -0.57401779  0.17541211 -0.27361793
  C  0.38935459 -0.38647657  0.45738553
  C  1.80194167 -0.15224841  0.21369160
  N  2.19081330  0.60548429 -0.71952863
  H  3.20130513  0.70032170 -0.79808061
  H  2.47397764 -0.68271826  0.90748282
  H  0.14906723 -1.05427134  1.27546560
  H -0.27519858  0.83051516 -1.07914687
  H -2.24885198 -1.04907187  0.23705609
  H -2.36968766  0.62195017  0.76809242
  H -2.60735117  0.22662028 -0.93291763
