13
opt_min/./Product_2430_0_opt.xyz
  C  0.47669400  0.13600900 -1.13170100
  H  0.61484016 -0.76401110 -1.73726044
  H  0.58437341  1.00221034 -1.78926257
  C  1.45127558  0.16727080  0.02257111
  H  2.51437714  0.18799041 -0.13373042
  C  0.79879979  0.23260954  1.17482024
  H  1.18767296  0.23255091  2.17947480
  N -0.60783011  0.27117672  1.02718778
  C -0.85635084  0.15645536 -0.40070505
  H -1.66112566  0.77142118 -0.78178553
  C -1.16639611 -0.96792447  0.50416155
  H -2.18987118 -1.18394414  0.77698815
  H -0.50285051 -1.82502332  0.46556387
