17
opt_min/./Product_10917_0_opt.xyz
  O -2.45645700  0.89537100  0.51743300
  C -2.39008662 -0.49998853  0.54628332
  H -2.64589252 -0.99437764 -0.37953605
  H -2.75315605 -0.95812723  1.45817495
  C -1.18296131  0.32698361  0.59861400
  C -0.27336284  0.47914097 -0.59968734
  C  0.94463630 -0.45016552 -0.56912557
  C  1.90048252 -0.16855893  0.60035710
  O  2.33037258  1.17196381  0.63567122
  H  2.95919482  1.32357015 -0.07488922
  H  2.74969552 -0.86038936  0.54259092
  H  1.39895803 -0.33913982  1.55305903
  H  1.49569336 -0.32182134 -1.50293858
  H  0.62253791 -1.49043521 -0.51365202
  H -0.85258152  0.27816831 -1.50156536
  H  0.06064397  1.51648724 -0.63983986
  H -0.70706715  0.45859090  1.56442479
