10
opt_min/./Reactant_2387_0_opt.xyz
  N -1.78091700 -0.34046300  0.02999400
  C -0.41698311 -0.15702905 -0.04463720
  N  0.47840730 -1.12474686  0.12811578
  N  1.64292678 -0.50341106  0.06707888
  H  2.52004387 -0.98709065  0.19186552
  N  1.57826983  0.79042670 -0.14811067
  C  0.28556715  1.05299967 -0.21980132
  H -0.07931866  2.04315002 -0.39242397
  H -2.00542245 -1.29913998  0.27245500
  H -2.29089179 -0.03613930 -0.78929898
