16
opt_min/./Product_4724_0_opt.xyz
  C -1.24901400  0.90946900 -1.12789900
  C -0.31140829 -0.15053975 -0.55432474
  C -1.03435693 -1.01242852  0.47584705
  H -1.42729425 -0.39259913  1.27821962
  H -1.86354789 -1.54177794  0.01250077
  H -0.34736466 -1.73608138  0.90380235
  C  0.93249391  0.50691077  0.07121330
  C  1.92341207 -0.55402643  0.44244098
  O  3.11063304 -0.24164141 -0.05774977
  H  3.75147905 -0.95839772  0.09063817
  H  1.35748388  1.25680673 -0.60666189
  H  0.63315837  0.99803275  1.00124955
  H  0.02535551 -0.79575978 -1.37325305
  H -1.80041729  1.40314124 -0.32904808
  H -0.69351792  1.66707010 -1.67695759
  H -1.96624915  0.45267937 -1.80647890
