11
opt_min/./Product_289_0_opt.xyz
  C -1.24794100 -0.42224300 -0.08927600
  C -0.01035575  0.40726314  0.19513418
  C  1.33229648 -0.23466120 -0.08660026
  H  1.66412332 -0.77994064  0.79284514
  H  2.06657400  0.52670519 -0.33614291
  H  1.25482883 -0.92601890 -0.92112646
  C -0.10562775  1.55727453  1.11418536
  O -0.12367699  1.79700772 -0.14661924
  H -0.98514381 -1.47076663 -0.16249452
  H -1.98027430 -0.29549952  0.70332059
  H -1.68759832 -0.10924430 -1.03528268
