14
opt_min/./Product_4135_0_opt.xyz
  C  1.58137500  0.11087800 -0.47135800
  C  0.28576246 -0.17690851  0.29736047
  O  0.52229314 -1.09799100  1.32774973
  H  0.69749946 -0.59703988  2.12995780
  C -0.94836135 -0.54291112 -0.54420904
  H -0.80012406 -0.45680455 -1.61651994
  H -1.41484225 -1.48865306 -0.29985278
  C -1.56293327  0.70905776  0.09954266
  H -1.87000661  1.49980793 -0.58594909
  H -2.36964276  0.49737367  0.81129631
  O -0.34675882  1.00330774  0.78714534
  H  2.43865437 -0.21901214  0.10796419
  H  1.58953772 -0.40180635 -1.42738848
  H  1.66970220  1.18126475 -0.64209267
