8
opt_min/./Product_11089_1_opt.xyz
  C -0.74600200  0.35551600 -0.64138300
  N -1.71543337 -0.21119813 -0.00949922
  H -2.59933900 -0.36859952 -0.47940143
  H -1.67126561 -0.55849072  0.95291999
  C  0.52469771  0.67565744 -0.12395443
  N  1.53111659 -0.10429095 -0.09487423
  H  2.41247918  0.35508852  0.12520367
  H  0.58734932  1.76818155  0.04801493
