15
opt_min/./Product_9595_0_opt.xyz
  O -2.19972800  0.15065900  0.36705000
  C -1.04535579  0.29268416 -0.39734392
  H -1.29211649  0.58437495 -1.42772847
  C  0.00413686  1.18497528  0.27944136
  H -0.32161079  1.47442882  1.27653143
  H  0.30130507  2.05582669 -0.30159524
  C  1.04334218  0.04430306  0.27879090
  O  2.12598587  0.21828866 -0.59725502
  H  2.71392631  0.89381949 -0.24170169
  H  1.39061312 -0.25781191  1.27704088
  C -0.02645397 -0.89725679 -0.32837518
  C -0.48711327 -2.14081697  0.22059530
  H  0.28851307 -2.63197783  0.82930043
  H  0.27132744 -1.19542265 -1.34441608
  H -2.65252016 -0.65993393  0.09976701
