16
opt_min/./Product_3602_0_opt.xyz
  C  2.68892300 -0.13649500 -0.59605500
  C  1.34666571 -0.73504423 -0.62366870
  C  0.27388257  0.15851639 -0.17572552
  C -0.95311709 -0.57573373  0.37892357
  C -2.19395612  0.31429060  0.35535283
  O -2.53631196  0.72445306 -0.94701901
  H -2.68551580 -0.06029290 -1.49171573
  H -3.03758915 -0.21041805  0.82853816
  H -2.01002572  1.24136483  0.90596827
  H -0.75519241 -0.89222430  1.40354167
  H -1.12921992 -1.46950401 -0.22401005
  H  0.57139167  0.97876498  0.49469329
  H -0.02974209  0.62855482 -1.12333357
  H  3.26502270 -0.42577223 -1.47410299
  H  3.16545915 -0.65242886  0.24800594
  H  2.75978832  0.94460677 -0.41203444
