12
opt_min/./Product_3206_0_opt.xyz
  C  1.93111700 -0.19408500  0.07793600
  C  0.44669266 -0.11578941  0.00982112
  C -0.36453633  1.03262221  0.13148366
  H -0.04125212  2.03958948  0.28758463
  C -1.64996937  0.56472528  0.00538232
  H -2.58891149  1.07918695  0.03236010
  N -1.56029164 -0.76741678 -0.17789088
  H -2.31785706 -1.41835735 -0.30788482
  N -0.29640404 -1.19040961 -0.17763310
  H  2.37824208  0.54002827 -0.58947182
  H  2.26119342 -1.18890529 -0.20155073
  H  2.27188325  0.02024426  1.09069626
