12
opt_min/./Reactant_3206_0_opt.xyz
  C -1.70411800 -0.20084300 -0.01573000
  C -0.23001447 -0.01549300  0.00469003
  C  0.79689526 -0.94116269  0.00080820
  H  0.68746606 -2.00480097 -0.02500336
  C  1.97157291 -0.17375455  0.03617034
  H  2.98498264 -0.52322823  0.04334243
  N  1.70089121  1.11382303  0.05930863
  N  0.37198209  1.19285082  0.04344324
  H -0.08227978  2.09046849  0.05877216
  H -1.97565161 -0.90788543 -0.79373623
  H -2.20784475  0.74225484 -0.21183286
  H -2.04995440 -0.59218371  0.93630590
