11
opt_min/./Product_9449_0_opt.xyz
  O  2.58764000 -0.90065800  1.22755600
  C  2.08634401 -0.64048062  0.17013243
  N  1.33007612  0.43465937 -0.13404593
  C  0.09694814  0.69096108 -0.24890086
  O -0.31862050  1.84806016 -0.73050956
  H  0.43354395  2.41814901 -0.94887992
  C -0.95905065 -0.26813954  0.16509422
  N -2.16632004  0.04300383  0.06072838
  H -2.84130558 -0.65418761  0.36719764
  H -0.53937673 -1.20737619  0.54972491
  H  2.31852716 -1.21049788 -0.75832347
