16
opt_min/./Product_10832_0_opt.xyz
  C -1.53182300 -1.03099800  0.41820000
  C -0.69542953 -0.11928261 -0.46582358
  H -1.04058738 -0.19578512 -1.49892169
  C -0.50592845  1.33411263  0.02537559
  H -0.78948056  2.09376824 -0.69904316
  H -0.99723143  1.54314806  0.97286138
  C  1.01459399  1.11264613  0.14222066
  H  1.62179008  1.72300682 -0.52797458
  H  1.41318962  1.19219307  1.15477609
  C  0.78909654 -0.30683635 -0.33461476
  N  1.49409864 -1.32052857 -0.55439574
  O  2.85047658 -1.24709811 -0.35536590
  H  3.10316045 -0.36366562 -0.03149178
  H -1.37314370 -2.06638807  0.12650284
  H -2.58880962 -0.79318384  0.31871859
  H -1.24537779 -0.91738419  1.46146120
