11
opt_min/./Product_5395_0_opt.xyz
  N  1.61530400  0.12565700 -0.53085400
  C  0.60092788 -0.20024300  0.31643449
  C -0.70708314  0.46794732  0.00590932
  H -0.70003004  1.55455976  0.02143031
  C -1.73624239 -0.23262089 -0.74204024
  H -2.08521887 -0.58661561 -1.68150258
  N -1.95999915 -0.21035232  0.48974951
  N  0.82205450 -0.96652897  1.30000905
  H  0.01802700 -1.10590253  1.90299031
  H  2.46614956 -0.39717468 -0.41883385
  H  1.40428372  0.48697855 -1.44312251
