14
opt_min/./Product_548_0_opt.xyz
  C -2.02663600  0.15745400  0.63713600
  C -0.75200494 -0.35913401 -0.00980589
  C  0.50823320  0.27137131  0.55772278
  C  0.47046427  1.17495609  1.48648510
  C  1.76209274 -0.25733532 -0.13024378
  O  2.96994022  0.10104790  0.46418245
  H  3.03541539  1.06028405  0.53990496
  H  1.73343196 -1.35132200 -0.12763081
  H  1.72315008  0.09852222 -1.17670700
  H -0.77035985 -0.15131819 -1.08648594
  H -0.67781089 -1.44199071  0.13024944
  H -2.89410943 -0.29889474  0.16079474
  H -2.03932816 -0.08834113  1.69856249
  H -2.09742035  1.23968687  0.53546679
