16
opt_min/./Product_11563_0_opt.xyz
  C -2.03251400  0.06665800 -0.03033500
  C -0.62795344  0.43399194 -0.38973810
  C  0.42963517 -0.35744307 -0.17427078
  C  0.33097882 -1.70524757  0.47809779
  H  1.30860157 -2.02231491  0.83242754
  H -0.36351275 -1.68080159  1.31386155
  H -0.02007593 -2.44644597 -0.23835920
  N  1.70713277 -0.06239899 -0.64667466
  C  2.32897765  0.99937493 -0.40323251
  O  1.97243432  2.02894576  0.37870032
  H  1.10254584  1.85884998  0.77590042
  H  3.30775350  1.14623500 -0.84272728
  H -0.48241143  1.36740249 -0.91658698
  H -2.73001689  0.81139505 -0.40307081
  H -2.16025634 -0.00088459  1.05207001
  H -2.30299586 -0.90091844 -0.45003961
