16
opt_min/./Product_492_0_opt.xyz
  C  0.11950200  1.60483800 -0.53631900
  C  0.05539471  0.29752713  0.24917587
  C -1.42424691 -0.10431413  0.56553043
  C -2.11775480 -0.02631313 -0.72250635
  H -2.09078515 -1.01094205 -1.22258663
  H -1.39728662 -1.08158167  1.05958577
  H -1.81000225  0.65948997  1.24810359
  O  0.67573930 -0.74278145 -0.47416310
  C  1.74870351 -1.37346842  0.17155765
  H  1.43928321 -1.84003984  1.11443853
  H  2.57189562 -0.67900619  0.37162690
  H  2.09247712 -2.14726276 -0.51271098
  H  0.56219178  0.41926273  1.21775186
  H  1.14900202  1.94287505 -0.62302979
  H -0.28999096  1.43840010 -1.52885199
  H -0.46908281  2.36862592 -0.03890391
