14
opt_min/./Product_11774_1_opt.xyz
  C -1.08979400 -1.13559000 -0.13573800
  C -0.18422476 -0.03266305  0.40238137
  C -0.73462718  1.35283539  0.04926883
  H -0.86241332  1.45120735 -1.02926388
  H -1.70078595  1.50335483  0.52723176
  H -0.04967147  2.12735616  0.39076290
  C  1.18787221 -0.15729898 -0.18591573
  N  2.20567505 -0.09909097  0.54244216
  H  3.10524282 -0.16592480  0.06748836
  H  1.20601736 -0.27484416 -1.27788232
  H -0.10247455 -0.11350469  1.49180392
  H -2.10268349 -1.00533775  0.24224084
  H -0.72772703 -2.11300474  0.18401466
  H -1.11987300 -1.11348712 -1.22586958
