14
opt_min/./Product_2962_0_opt.xyz
  C -1.00932906 -0.96789694 -0.84130001
  N -0.43435213 -0.21980074  0.33947386
  C -0.58964422  1.22448045  0.11941071
  H -0.28095245  1.43388777 -0.90619377
  H -1.63641673  1.49102950  0.24740835
  H  0.02835698  1.79770729  0.81485885
  C  0.99943063 -0.62163118  0.47573396
  C  1.89315034  0.22931484 -0.27503316
  N  2.62107299  0.91597451 -0.82689311
  H  1.08513319 -1.63611652  0.07124544
  H  1.30462384 -0.59456200  1.52849636
  H -0.86838566 -0.43700446  1.25431893
  H -2.04856494 -0.58760170 -0.93008473
  H -1.12039517 -2.01475510 -0.47805328
