10
opt_min/./Product_6110_0_opt.xyz
  C  2.28352200  0.09720500  0.32626200
  O  1.19011102  0.02666729 -0.35315754
  C -0.00916190  0.25213562  0.07574068
  N -1.01396941  0.11245210 -0.80057911
  C -2.22978618  0.29150874 -0.46468446
  H -2.54360536  0.57385955  0.54418038
  H -2.99153926  0.18203055 -1.21584072
  H -0.17515877  0.53568525  1.12443472
  H  2.29441719  0.35668342  1.37412620
  H  3.19049172 -0.12979535 -0.19884634
