17
opt_min/./Product_11549_0_opt.xyz
  C  2.70304300 -0.45896400  0.28010500
  O  1.42808050 -0.13336620  0.76530794
  C  0.64130353  0.55669491 -0.17482923
  C -0.73940637  0.81859708  0.43049935
  C -1.49066292 -0.46407021  0.63349416
  C -2.69600129 -0.75839012  0.16659320
  O -3.51307802  0.03627001 -0.57136998
  H -3.08417985  0.88730891 -0.72631737
  H -3.16360697 -1.71425571  0.35377824
  H -0.96426616 -1.20667955  1.21001781
  H -1.27684828  1.50832296 -0.22743633
  H -0.59202142  1.30952115  1.39644929
  H  0.54330149 -0.03746734 -1.09924638
  H  1.12240448  1.51435023 -0.43972064
  H  3.26855965  0.44235402  0.01049358
  H  2.63884722 -1.10776139 -0.60301109
  H  3.21617828 -0.98317613  1.08445850
