11
opt_min/./Product_10681_0_opt.xyz
  C  2.59765399  1.32684301  0.33946101
  C  1.67719794  0.56228336  0.20551092
  C  0.62284057 -0.30487033  0.05554319
  C -0.00040531 -1.43079070  0.24649385
  H -0.04286460 -2.39704656  0.68027941
  C -0.76497586 -0.43391321 -0.59565631
  C -1.88499045  0.28856962  0.01950726
  O -2.03485105  0.48148364  1.19789921
  H -2.62827874  0.65514517 -0.72332968
  H -0.83357360 -0.57527158 -1.66884978
  H  3.40597772  1.98481315  0.45427131
