14
opt_min/./Product_1386_0_opt.xyz
  C  2.19478000  0.19419100 -0.15326000
  C  0.71746129  0.05182987 -0.06138936
  C -0.01779639 -1.04700301  0.09002705
  H  0.36251596 -2.04383934  0.16304772
  C -1.47685318 -0.68216627  0.11732815
  H -2.00631942 -1.10604417 -0.73830660
  H -1.97688088 -1.02375868  1.02221405
  C -1.39022341  0.85819913  0.03873040
  H -1.95105915  1.27022598 -0.80137349
  H -1.74073630  1.33386072  0.96089679
  O -0.01721877  1.20443570 -0.13604100
  H  2.45683126  0.84466427 -0.98295199
  H  2.59019577  0.64587097  0.75518655
  H  2.64596532 -0.78186994 -0.28990498
