12
opt_min/./Product_9511_0_opt.xyz
  C -1.61417900 -0.47669600 -0.03875100
  C -0.19770237  0.01984112 -0.02398918
  C  0.86351312 -0.76932236  0.16718839
  O  2.13957501 -0.27254050  0.15960568
  H  2.76421138 -0.97401198  0.35560850
  H  0.73437589 -1.82986432  0.33481778
  N -0.05655114  1.37072429 -0.24485351
  C  0.73208143  2.26002681 -0.33187831
  O  1.32631908  3.24820268 -0.44199729
  H -2.29017643  0.37147814  0.00413104
  H -1.82075914 -1.03605583 -0.94891474
  H -1.80749769 -1.12386281  0.81209821
