11
opt_min/./Product_4097_0_opt.xyz
  N -1.61199800  0.24513100  0.67243900
  H -2.53978636  0.41838547  1.04150922
  C -0.91778739 -0.90305094  0.52421126
  H -1.35123860 -1.83831461  0.21732911
  C  0.19055865 -0.08680286 -0.14301900
  O  1.47438965 -0.08790906  0.43368456
  C  2.47577611 -0.26973617 -0.36963237
  H  3.37457848 -0.22749164  0.28957303
  H  0.24604477 -0.30658273 -1.21617410
  C -0.70259204  1.09363733  0.17045190
  H -0.49699580  2.09790798  0.47648161
