14
opt_min/./Product_11238_0_opt.xyz
  C -0.45424585 -1.25209208 -0.58767194
  C -0.01676505  0.02467858  0.16126387
  C  1.50358925 -0.03136795  0.31029574
  O  2.25627136  0.83069798 -0.02536564
  H  1.83320693 -0.96583760  0.80497839
  C -0.46158074  1.30326363 -0.54592425
  H -0.11655734  1.28556297 -1.57779103
  H -1.54511413  1.38855395 -0.54206133
  H -0.03154526  2.17542976 -0.06359346
  C -0.56367924 -0.00255426  1.50209914
  N -0.99365769 -0.03096668  2.56114894
  H -0.58897851 -2.08839359  0.09261199
  H -1.39254010 -1.06590500 -1.10095818
  H  0.28970735 -1.53233197 -1.32970567
