13
opt_min/./Product_7782_0_opt.xyz
  C  2.17908900  0.09910800 -0.12285500
  C  0.81068565  0.02157506 -0.67009424
  C -0.22665017 -0.04606940  0.31107660
  H -0.00068430 -0.06049546  1.38365100
  C -1.44196939 -0.88507147 -0.11831213
  H -1.89809747 -1.49022445  0.65042647
  H -1.36117449 -1.36684535 -1.07982352
  C -1.57032039  0.57470209 -0.07182971
  H -1.60132271  1.12506761 -0.99922203
  H -2.11663650  1.03448284  0.73866585
  H  2.86045003 -0.53085423 -0.69221595
  H  2.29488567 -0.08603102  0.95475446
  H  2.47955141  1.13227391 -0.32576984
