8
opt_min/./Product_3920_0_opt.xyz
  O  1.98094804  1.02766169  0.09459113
  C  0.99898386  0.36469416  0.63751848
  C  0.08501336 -0.18808769  1.17682904
  C -1.84354025 -0.52525266 -1.06538124
  N -2.39799150  0.46719499 -1.12123231
  H -1.34454740 -1.46156538 -1.03181055
  H -0.68768360 -0.70050738  1.66003002
  H  2.23060413  0.64552064 -0.75516949
