14
opt_min/./Product_5512_0_opt.xyz
  C  1.72632900  0.37824900 -0.88236600
  C  1.20334099  0.28132680  0.32846009
  O  1.97922275  0.46616118  1.44476118
  H  1.43747361  0.41026364  2.24171886
  C -0.24217806 -0.04007393  0.59847143
  O -0.96794699 -0.10305675 -0.59673112
  C -2.30277226 -0.48970470 -0.41579257
  H -2.37277373 -1.49126099  0.03248167
  H -2.84240979  0.21739845  0.23166610
  H -2.75997016 -0.50484223 -1.40380309
  H -0.67261126  0.73567319  1.26782197
  H -0.30594984 -1.01185297  1.12767572
  H  1.10327609  0.23023460 -1.74248086
  H  2.76428330  0.61294692 -1.01708967
