14
opt_min/./Product_10573_0_opt.xyz
  C -0.82352500  1.00734100 -0.33540400
  C -0.51641121 -0.32802791  0.37489632
  C -0.09320048 -0.20477794  1.74091256
  H -0.50696372 -1.02222788  2.34881231
  O -1.47987829 -1.30577382  0.07928421
  H -1.32159584 -1.64070569 -0.81618214
  C  0.86462446 -0.75869692 -0.30056183
  O  0.83126558 -1.56143108 -1.19376558
  N  1.92640382 -0.09912501  0.16030219
  H  2.84153657 -0.31431905 -0.20804974
  H  1.80379215  0.43130560  1.01669551
  H -0.08247941  1.75574417 -0.06828608
  H -0.83447129  0.86891694 -1.41480198
  H -1.80672693  1.34379465 -0.01404997
