10
opt_min/./Product_11267_0_opt.xyz
  O  2.72863900  0.72236600 -0.62958100
  C  1.98010159  0.04998248  0.01970741
  C  0.50940523  0.08585828 -0.06732874
  N -0.28390974 -0.62515644  0.61756741
  C -1.60729963 -0.25971930  0.20333910
  H -2.13790953 -1.13172787 -0.18618799
  H -2.19105891  0.10259176  1.05212688
  C -1.42700444  0.80125356 -0.85194575
  O -0.14617044  0.94918330 -0.95473447
  H  2.32896830 -0.68662981  0.76630515
